<?xml version="1.0" encoding="UTF-8"?>

<!-- generated on 10/27/20 16:51:06 by Eclipse SUMO netedit Version 1.3.1
<configuration xmlns:xsi="http://www.w3.org/2001/XMLSchema-instance" xsi:noNamespaceSchemaLocation="http://sumo.dlr.de/xsd/netconvertConfiguration.xsd">

    <input>
        <sumo-net-file value="C:\Users\json\Desktop\linux\tsc-sumo\roadnet\1_3.net.xml"/>
    </input>

    <output>
        <output-file value="C:\Users\json\Desktop\linux\tsc-sumo\roadnet\1_3.net.xml"/>
    </output>

    <processing>
        <geometry.max-grade.fix value="false"/>
        <offset.disable-normalization value="true"/>
        <opposites.guess.fix-lengths value="true"/>
        <lefthand value="false"/>
    </processing>

    <junctions>
        <no-turnarounds value="true"/>
        <junctions.corner-detail value="5"/>
        <junctions.limit-turn-speed value="5.5"/>
        <rectangular-lane-cut value="false"/>
    </junctions>

    <pedestrian>
        <walkingareas value="false"/>
    </pedestrian>

</configuration>
-->

<net version="1.3" junctionCornerDetail="5" limitTurnSpeed="5.50" xmlns:xsi="http://www.w3.org/2001/XMLSchema-instance" xsi:noNamespaceSchemaLocation="http://sumo.dlr.de/xsd/net_file.xsd">

    <location netOffset="0.00,0.00" convBoundary="-150.00,-150.00,300.00,150.00" origBoundary="-10000000000.00,-10000000000.00,10000000000.00,10000000000.00" projParameter="!"/>

    <edge id=":TL1_0" function="internal">
        <lane id=":TL1_0_0" index="0" speed="6.51" length="9.03" shape="-8.00,13.60 -8.35,11.15 -9.40,9.40 -11.15,8.35 -13.60,8.00"/>
    </edge>
    <edge id=":TL1_1" function="internal">
        <lane id=":TL1_1_0" index="0" speed="13.89" length="27.20" shape="-4.80,13.60 -4.80,-13.60"/>
    </edge>
    <edge id=":TL1_2" function="internal">
        <lane id=":TL1_2_0" index="0" speed="10.36" length="24.51" shape="-1.60,13.60 -0.65,6.95 2.20,2.20 6.95,-0.65 13.60,-1.60"/>
    </edge>
    <edge id=":TL1_3" function="internal">
        <lane id=":TL1_3_0" index="0" speed="6.51" length="9.03" shape="13.60,8.00 11.15,8.35 9.40,9.40 8.35,11.15 8.00,13.60"/>
    </edge>
    <edge id=":TL1_4" function="internal">
        <lane id=":TL1_4_0" index="0" speed="13.89" length="27.20" shape="13.60,4.80 -13.60,4.80"/>
    </edge>
    <edge id=":TL1_5" function="internal">
        <lane id=":TL1_5_0" index="0" speed="10.36" length="24.51" shape="13.60,1.60 6.95,0.65 2.20,-2.20 -0.65,-6.95 -1.60,-13.60"/>
    </edge>
    <edge id=":TL1_6" function="internal">
        <lane id=":TL1_6_0" index="0" speed="6.51" length="9.03" shape="8.00,-13.60 8.35,-11.15 9.40,-9.40 11.15,-8.35 13.60,-8.00"/>
    </edge>
    <edge id=":TL1_7" function="internal">
        <lane id=":TL1_7_0" index="0" speed="13.89" length="27.20" shape="4.80,-13.60 4.80,13.60"/>
    </edge>
    <edge id=":TL1_8" function="internal">
        <lane id=":TL1_8_0" index="0" speed="10.36" length="24.51" shape="1.60,-13.60 0.65,-6.95 -2.20,-2.20 -6.95,0.65 -13.60,1.60"/>
    </edge>
    <edge id=":TL1_9" function="internal">
        <lane id=":TL1_9_0" index="0" speed="6.51" length="9.03" shape="-13.60,-8.00 -11.15,-8.35 -9.40,-9.40 -8.35,-11.15 -8.00,-13.60"/>
    </edge>
    <edge id=":TL1_10" function="internal">
        <lane id=":TL1_10_0" index="0" speed="13.89" length="27.20" shape="-13.60,-4.80 13.60,-4.80"/>
    </edge>
    <edge id=":TL1_11" function="internal">
        <lane id=":TL1_11_0" index="0" speed="10.36" length="24.51" shape="-13.60,-1.60 -6.95,-0.65 -2.20,2.20 0.65,6.95 1.60,13.60"/>
    </edge>
    <edge id=":TL2_0" function="internal">
        <lane id=":TL2_0_0" index="0" speed="6.51" length="9.03" shape="142.00,13.60 141.65,11.15 140.60,9.40 138.85,8.35 136.40,8.00"/>
    </edge>
    <edge id=":TL2_1" function="internal">
        <lane id=":TL2_1_0" index="0" speed="13.89" length="27.20" shape="145.20,13.60 145.20,-13.60"/>
    </edge>
    <edge id=":TL2_2" function="internal">
        <lane id=":TL2_2_0" index="0" speed="10.36" length="24.51" shape="148.40,13.60 149.35,6.95 152.20,2.20 156.95,-0.65 163.60,-1.60"/>
    </edge>
    <edge id=":TL2_3" function="internal">
        <lane id=":TL2_3_0" index="0" speed="6.51" length="9.03" shape="163.60,8.00 161.15,8.35 159.40,9.40 158.35,11.15 158.00,13.60"/>
    </edge>
    <edge id=":TL2_4" function="internal">
        <lane id=":TL2_4_0" index="0" speed="13.89" length="27.20" shape="163.60,4.80 136.40,4.80"/>
    </edge>
    <edge id=":TL2_5" function="internal">
        <lane id=":TL2_5_0" index="0" speed="10.36" length="24.51" shape="163.60,1.60 156.95,0.65 152.20,-2.20 149.35,-6.95 148.40,-13.60"/>
    </edge>
    <edge id=":TL2_6" function="internal">
        <lane id=":TL2_6_0" index="0" speed="6.51" length="9.03" shape="158.00,-13.60 158.35,-11.15 159.40,-9.40 161.15,-8.35 163.60,-8.00"/>
    </edge>
    <edge id=":TL2_7" function="internal">
        <lane id=":TL2_7_0" index="0" speed="13.89" length="27.20" shape="154.80,-13.60 154.80,13.60"/>
    </edge>
    <edge id=":TL2_8" function="internal">
        <lane id=":TL2_8_0" index="0" speed="10.36" length="24.51" shape="151.60,-13.60 150.65,-6.95 147.80,-2.20 143.05,0.65 136.40,1.60"/>
    </edge>
    <edge id=":TL2_9" function="internal">
        <lane id=":TL2_9_0" index="0" speed="6.51" length="9.03" shape="136.40,-8.00 138.85,-8.35 140.60,-9.40 141.65,-11.15 142.00,-13.60"/>
    </edge>
    <edge id=":TL2_10" function="internal">
        <lane id=":TL2_10_0" index="0" speed="13.89" length="27.20" shape="136.40,-4.80 163.60,-4.80"/>
    </edge>
    <edge id=":TL2_11" function="internal">
        <lane id=":TL2_11_0" index="0" speed="10.36" length="24.51" shape="136.40,-1.60 143.05,-0.65 147.80,2.20 150.65,6.95 151.60,13.60"/>
    </edge>

    <edge id="E2TL2" from="E" to="TL2" priority="-1">
        <lane id="E2TL2_0" index="0" speed="13.89" length="136.40" shape="300.00,8.00 163.60,8.00"/>
        <lane id="E2TL2_1" index="1" speed="13.89" length="136.40" shape="300.00,4.80 163.60,4.80"/>
        <lane id="E2TL2_2" index="2" speed="13.89" length="136.40" shape="300.00,1.60 163.60,1.60"/>
    </edge>
    <edge id="N12TL1" from="N1" to="TL1" priority="-1">
        <lane id="N12TL1_0" index="0" speed="13.89" length="136.40" shape="-8.00,150.00 -8.00,13.60"/>
        <lane id="N12TL1_1" index="1" speed="13.89" length="136.40" shape="-4.80,150.00 -4.80,13.60"/>
        <lane id="N12TL1_2" index="2" speed="13.89" length="136.40" shape="-1.60,150.00 -1.60,13.60"/>
    </edge>
    <edge id="N22TL2" from="N2" to="TL2" priority="-1">
        <lane id="N22TL2_0" index="0" speed="13.89" length="136.40" shape="142.00,150.00 142.00,13.60"/>
        <lane id="N22TL2_1" index="1" speed="13.89" length="136.40" shape="145.20,150.00 145.20,13.60"/>
        <lane id="N22TL2_2" index="2" speed="13.89" length="136.40" shape="148.40,150.00 148.40,13.60"/>
    </edge>
    <edge id="S12TL1" from="S1" to="TL1" priority="-1">
        <lane id="S12TL1_0" index="0" speed="13.89" length="136.40" shape="8.00,-150.00 8.00,-13.60"/>
        <lane id="S12TL1_1" index="1" speed="13.89" length="136.40" shape="4.80,-150.00 4.80,-13.60"/>
        <lane id="S12TL1_2" index="2" speed="13.89" length="136.40" shape="1.60,-150.00 1.60,-13.60"/>
    </edge>
    <edge id="S22TL2" from="S2" to="TL2" priority="-1">
        <lane id="S22TL2_0" index="0" speed="13.89" length="136.40" shape="158.00,-150.00 158.00,-13.60"/>
        <lane id="S22TL2_1" index="1" speed="13.89" length="136.40" shape="154.80,-150.00 154.80,-13.60"/>
        <lane id="S22TL2_2" index="2" speed="13.89" length="136.40" shape="151.60,-150.00 151.60,-13.60"/>
    </edge>
    <edge id="TL12N1" from="TL1" to="N1" priority="-1">
        <lane id="TL12N1_0" index="0" speed="13.89" length="136.40" shape="8.00,13.60 8.00,150.00"/>
        <lane id="TL12N1_1" index="1" speed="13.89" length="136.40" shape="4.80,13.60 4.80,150.00"/>
        <lane id="TL12N1_2" index="2" speed="13.89" length="136.40" shape="1.60,13.60 1.60,150.00"/>
    </edge>
    <edge id="TL12S1" from="TL1" to="S1" priority="-1">
        <lane id="TL12S1_0" index="0" speed="13.89" length="136.40" shape="-8.00,-13.60 -8.00,-150.00"/>
        <lane id="TL12S1_1" index="1" speed="13.89" length="136.40" shape="-4.80,-13.60 -4.80,-150.00"/>
        <lane id="TL12S1_2" index="2" speed="13.89" length="136.40" shape="-1.60,-13.60 -1.60,-150.00"/>
    </edge>
    <edge id="TL12TL2" from="TL1" to="TL2" priority="-1" length="300.00">
        <lane id="TL12TL2_0" index="0" speed="13.89" length="300.00" shape="13.60,-8.00 136.40,-8.00"/>
        <lane id="TL12TL2_1" index="1" speed="13.89" length="300.00" shape="13.60,-4.80 136.40,-4.80"/>
        <lane id="TL12TL2_2" index="2" speed="13.89" length="300.00" shape="13.60,-1.60 136.40,-1.60"/>
    </edge>
    <edge id="TL12W" from="TL1" to="W" priority="-1">
        <lane id="TL12W_0" index="0" speed="13.89" length="136.40" shape="-13.60,8.00 -150.00,8.00"/>
        <lane id="TL12W_1" index="1" speed="13.89" length="136.40" shape="-13.60,4.80 -150.00,4.80"/>
        <lane id="TL12W_2" index="2" speed="13.89" length="136.40" shape="-13.60,1.60 -150.00,1.60"/>
    </edge>
    <edge id="TL22E" from="TL2" to="E" priority="-1">
        <lane id="TL22E_0" index="0" speed="13.89" length="136.40" shape="163.60,-8.00 300.00,-8.00"/>
        <lane id="TL22E_1" index="1" speed="13.89" length="136.40" shape="163.60,-4.80 300.00,-4.80"/>
        <lane id="TL22E_2" index="2" speed="13.89" length="136.40" shape="163.60,-1.60 300.00,-1.60"/>
    </edge>
    <edge id="TL22N2" from="TL2" to="N2" priority="-1">
        <lane id="TL22N2_0" index="0" speed="13.89" length="136.40" shape="158.00,13.60 158.00,150.00"/>
        <lane id="TL22N2_1" index="1" speed="13.89" length="136.40" shape="154.80,13.60 154.80,150.00"/>
        <lane id="TL22N2_2" index="2" speed="13.89" length="136.40" shape="151.60,13.60 151.60,150.00"/>
    </edge>
    <edge id="TL22S2" from="TL2" to="S2" priority="-1">
        <lane id="TL22S2_0" index="0" speed="13.89" length="136.40" shape="142.00,-13.60 142.00,-150.00"/>
        <lane id="TL22S2_1" index="1" speed="13.89" length="136.40" shape="145.20,-13.60 145.20,-150.00"/>
        <lane id="TL22S2_2" index="2" speed="13.89" length="136.40" shape="148.40,-13.60 148.40,-150.00"/>
    </edge>
    <edge id="TL22TL1" from="TL2" to="TL1" priority="-1" length="300.00">
        <lane id="TL22TL1_0" index="0" speed="13.89" length="300.00" shape="136.40,8.00 13.60,8.00"/>
        <lane id="TL22TL1_1" index="1" speed="13.89" length="300.00" shape="136.40,4.80 13.60,4.80"/>
        <lane id="TL22TL1_2" index="2" speed="13.89" length="300.00" shape="136.40,1.60 13.60,1.60"/>
    </edge>
    <edge id="W2TL1" from="W" to="TL1" priority="-1">
        <lane id="W2TL1_0" index="0" speed="13.89" length="136.40" shape="-150.00,-8.00 -13.60,-8.00"/>
        <lane id="W2TL1_1" index="1" speed="13.89" length="136.40" shape="-150.00,-4.80 -13.60,-4.80"/>
        <lane id="W2TL1_2" index="2" speed="13.89" length="136.40" shape="-150.00,-1.60 -13.60,-1.60"/>
    </edge>

    <tlLogic id="TL1" type="static" programID="0" offset="0">
        <phase duration="20" state="gGrgrrgGrgrr"/>
        <phase duration="20" state="grGgrrgrGgrr"/>
        <phase duration="20" state="grrgGrgrrgGr"/>
        <phase duration="20" state="grrgrGgrrgrG"/>
    </tlLogic>
    <tlLogic id="TL2" type="static" programID="0" offset="0">
        <phase duration="20" state="gGrgrrgGrgrr"/>
        <phase duration="20" state="grGgrrgrGgrr"/>
        <phase duration="20" state="grrgGrgrrgGr"/>
        <phase duration="20" state="grrgyGgrrgyG"/>
    </tlLogic>

    <junction id="E" type="dead_end" x="300.00" y="0.00" incLanes="TL22E_0 TL22E_1 TL22E_2" intLanes="" shape="300.00,0.00 300.00,-9.60 300.00,0.00"/>
    <junction id="N1" type="dead_end" x="0.00" y="150.00" incLanes="TL12N1_0 TL12N1_1 TL12N1_2" intLanes="" shape="0.00,150.00 9.60,150.00 0.00,150.00"/>
    <junction id="N2" type="dead_end" x="150.00" y="150.00" incLanes="TL22N2_0 TL22N2_1 TL22N2_2" intLanes="" shape="150.00,150.00 159.60,150.00 150.00,150.00"/>
    <junction id="S1" type="dead_end" x="0.00" y="-150.00" incLanes="TL12S1_0 TL12S1_1 TL12S1_2" intLanes="" shape="0.00,-150.00 -9.60,-150.00 0.00,-150.00"/>
    <junction id="S2" type="dead_end" x="150.00" y="-150.00" incLanes="TL22S2_0 TL22S2_1 TL22S2_2" intLanes="" shape="150.00,-150.00 140.40,-150.00 150.00,-150.00"/>
    <junction id="TL1" type="traffic_light" x="0.00" y="0.00" incLanes="N12TL1_0 N12TL1_1 N12TL1_2 TL22TL1_0 TL22TL1_1 TL22TL1_2 S12TL1_0 S12TL1_1 S12TL1_2 W2TL1_0 W2TL1_1 W2TL1_2" intLanes=":TL1_0_0 :TL1_1_0 :TL1_2_0 :TL1_3_0 :TL1_4_0 :TL1_5_0 :TL1_6_0 :TL1_7_0 :TL1_8_0 :TL1_9_0 :TL1_10_0 :TL1_11_0" shape="-9.60,13.60 9.60,13.60 10.04,11.38 10.60,10.60 11.38,10.04 12.38,9.71 13.60,9.60 13.60,-9.60 11.38,-10.04 10.60,-10.60 10.04,-11.38 9.71,-12.38 9.60,-13.60 -9.60,-13.60 -10.04,-11.38 -10.60,-10.60 -11.38,-10.04 -12.38,-9.71 -13.60,-9.60 -13.60,9.60 -11.38,10.04 -10.60,10.60 -10.04,11.38 -9.71,12.38">
        <request index="0"  response="000000000000" foes="000000000000" cont="0"/>
        <request index="1"  response="000000000000" foes="110100010000" cont="0"/>
        <request index="2"  response="000010000000" foes="100010110000" cont="0"/>
        <request index="3"  response="000000000000" foes="000000000000" cont="0"/>
        <request index="4"  response="000010000110" foes="100010000110" cont="0"/>
        <request index="5"  response="010110000100" foes="010110000100" cont="0"/>
        <request index="6"  response="000000000000" foes="000000000000" cont="0"/>
        <request index="7"  response="000000000000" foes="010000110100" cont="0"/>
        <request index="8"  response="000000000010" foes="110000100010" cont="0"/>
        <request index="9"  response="000000000000" foes="000000000000" cont="0"/>
        <request index="10" response="000110000010" foes="000110100010" cont="0"/>
        <request index="11" response="000100010110" foes="000100010110" cont="0"/>
    </junction>
    <junction id="TL2" type="traffic_light" x="150.00" y="0.00" incLanes="N22TL2_0 N22TL2_1 N22TL2_2 E2TL2_0 E2TL2_1 E2TL2_2 S22TL2_0 S22TL2_1 S22TL2_2 TL12TL2_0 TL12TL2_1 TL12TL2_2" intLanes=":TL2_0_0 :TL2_1_0 :TL2_2_0 :TL2_3_0 :TL2_4_0 :TL2_5_0 :TL2_6_0 :TL2_7_0 :TL2_8_0 :TL2_9_0 :TL2_10_0 :TL2_11_0" shape="140.40,13.60 159.60,13.60 160.04,11.38 160.60,10.60 161.38,10.04 162.38,9.71 163.60,9.60 163.60,-9.60 161.38,-10.04 160.60,-10.60 160.04,-11.38 159.71,-12.38 159.60,-13.60 140.40,-13.60 139.96,-11.38 139.40,-10.60 138.62,-10.04 137.62,-9.71 136.40,-9.60 136.40,9.60 138.62,10.04 139.40,10.60 139.96,11.38 140.29,12.38">
        <request index="0"  response="000000000000" foes="000000000000" cont="0"/>
        <request index="1"  response="000000000000" foes="110100010000" cont="0"/>
        <request index="2"  response="000010000000" foes="100010110000" cont="0"/>
        <request index="3"  response="000000000000" foes="000000000000" cont="0"/>
        <request index="4"  response="000010000110" foes="100010000110" cont="0"/>
        <request index="5"  response="010110000100" foes="010110000100" cont="0"/>
        <request index="6"  response="000000000000" foes="000000000000" cont="0"/>
        <request index="7"  response="000000000000" foes="010000110100" cont="0"/>
        <request index="8"  response="000000000010" foes="110000100010" cont="0"/>
        <request index="9"  response="000000000000" foes="000000000000" cont="0"/>
        <request index="10" response="000110000010" foes="000110100010" cont="0"/>
        <request index="11" response="000100010110" foes="000100010110" cont="0"/>
    </junction>
    <junction id="W" type="dead_end" x="-150.00" y="0.00" incLanes="TL12W_0 TL12W_1 TL12W_2" intLanes="" shape="-150.00,0.00 -150.00,9.60 -150.00,0.00"/>

    <connection from="E2TL2" to="TL22N2" fromLane="0" toLane="0" via=":TL2_3_0" tl="TL2" linkIndex="3" dir="r" state="O"/>
    <connection from="E2TL2" to="TL22TL1" fromLane="1" toLane="1" via=":TL2_4_0" tl="TL2" linkIndex="4" dir="s" state="o"/>
    <connection from="E2TL2" to="TL22S2" fromLane="2" toLane="2" via=":TL2_5_0" tl="TL2" linkIndex="5" dir="l" state="o"/>
    <connection from="N12TL1" to="TL12W" fromLane="0" toLane="0" via=":TL1_0_0" tl="TL1" linkIndex="0" dir="r" state="O"/>
    <connection from="N12TL1" to="TL12S1" fromLane="1" toLane="1" via=":TL1_1_0" tl="TL1" linkIndex="1" dir="s" state="O"/>
    <connection from="N12TL1" to="TL12TL2" fromLane="2" toLane="2" via=":TL1_2_0" tl="TL1" linkIndex="2" dir="l" state="o"/>
    <connection from="N22TL2" to="TL22TL1" fromLane="0" toLane="0" via=":TL2_0_0" tl="TL2" linkIndex="0" dir="r" state="O"/>
    <connection from="N22TL2" to="TL22S2" fromLane="1" toLane="1" via=":TL2_1_0" tl="TL2" linkIndex="1" dir="s" state="O"/>
    <connection from="N22TL2" to="TL22E" fromLane="2" toLane="2" via=":TL2_2_0" tl="TL2" linkIndex="2" dir="l" state="o"/>
    <connection from="S12TL1" to="TL12TL2" fromLane="0" toLane="0" via=":TL1_6_0" tl="TL1" linkIndex="6" dir="r" state="O"/>
    <connection from="S12TL1" to="TL12N1" fromLane="1" toLane="1" via=":TL1_7_0" tl="TL1" linkIndex="7" dir="s" state="O"/>
    <connection from="S12TL1" to="TL12W" fromLane="2" toLane="2" via=":TL1_8_0" tl="TL1" linkIndex="8" dir="l" state="o"/>
    <connection from="S22TL2" to="TL22E" fromLane="0" toLane="0" via=":TL2_6_0" tl="TL2" linkIndex="6" dir="r" state="O"/>
    <connection from="S22TL2" to="TL22N2" fromLane="1" toLane="1" via=":TL2_7_0" tl="TL2" linkIndex="7" dir="s" state="O"/>
    <connection from="S22TL2" to="TL22TL1" fromLane="2" toLane="2" via=":TL2_8_0" tl="TL2" linkIndex="8" dir="l" state="o"/>
    <connection from="TL12TL2" to="TL22S2" fromLane="0" toLane="0" via=":TL2_9_0" tl="TL2" linkIndex="9" dir="r" state="O"/>
    <connection from="TL12TL2" to="TL22E" fromLane="1" toLane="1" via=":TL2_10_0" tl="TL2" linkIndex="10" dir="s" state="o"/>
    <connection from="TL12TL2" to="TL22N2" fromLane="2" toLane="2" via=":TL2_11_0" tl="TL2" linkIndex="11" dir="l" state="o"/>
    <connection from="TL22TL1" to="TL12N1" fromLane="0" toLane="0" via=":TL1_3_0" tl="TL1" linkIndex="3" dir="r" state="O"/>
    <connection from="TL22TL1" to="TL12W" fromLane="1" toLane="1" via=":TL1_4_0" tl="TL1" linkIndex="4" dir="s" state="o"/>
    <connection from="TL22TL1" to="TL12S1" fromLane="2" toLane="2" via=":TL1_5_0" tl="TL1" linkIndex="5" dir="l" state="o"/>
    <connection from="W2TL1" to="TL12S1" fromLane="0" toLane="0" via=":TL1_9_0" tl="TL1" linkIndex="9" dir="r" state="O"/>
    <connection from="W2TL1" to="TL12TL2" fromLane="1" toLane="1" via=":TL1_10_0" tl="TL1" linkIndex="10" dir="s" state="o"/>
    <connection from="W2TL1" to="TL12N1" fromLane="2" toLane="2" via=":TL1_11_0" tl="TL1" linkIndex="11" dir="l" state="o"/>

    <connection from=":TL1_0" to="TL12W" fromLane="0" toLane="0" dir="r" state="M"/>
    <connection from=":TL1_1" to="TL12S1" fromLane="0" toLane="1" dir="s" state="M"/>
    <connection from=":TL1_2" to="TL12TL2" fromLane="0" toLane="2" dir="l" state="M"/>
    <connection from=":TL1_3" to="TL12N1" fromLane="0" toLane="0" dir="r" state="M"/>
    <connection from=":TL1_4" to="TL12W" fromLane="0" toLane="1" dir="s" state="M"/>
    <connection from=":TL1_5" to="TL12S1" fromLane="0" toLane="2" dir="l" state="M"/>
    <connection from=":TL1_6" to="TL12TL2" fromLane="0" toLane="0" dir="r" state="M"/>
    <connection from=":TL1_7" to="TL12N1" fromLane="0" toLane="1" dir="s" state="M"/>
    <connection from=":TL1_8" to="TL12W" fromLane="0" toLane="2" dir="l" state="M"/>
    <connection from=":TL1_9" to="TL12S1" fromLane="0" toLane="0" dir="r" state="M"/>
    <connection from=":TL1_10" to="TL12TL2" fromLane="0" toLane="1" dir="s" state="M"/>
    <connection from=":TL1_11" to="TL12N1" fromLane="0" toLane="2" dir="l" state="M"/>
    <connection from=":TL2_0" to="TL22TL1" fromLane="0" toLane="0" dir="r" state="M"/>
    <connection from=":TL2_1" to="TL22S2" fromLane="0" toLane="1" dir="s" state="M"/>
    <connection from=":TL2_2" to="TL22E" fromLane="0" toLane="2" dir="l" state="M"/>
    <connection from=":TL2_3" to="TL22N2" fromLane="0" toLane="0" dir="r" state="M"/>
    <connection from=":TL2_4" to="TL22TL1" fromLane="0" toLane="1" dir="s" state="M"/>
    <connection from=":TL2_5" to="TL22S2" fromLane="0" toLane="2" dir="l" state="M"/>
    <connection from=":TL2_6" to="TL22E" fromLane="0" toLane="0" dir="r" state="M"/>
    <connection from=":TL2_7" to="TL22N2" fromLane="0" toLane="1" dir="s" state="M"/>
    <connection from=":TL2_8" to="TL22TL1" fromLane="0" toLane="2" dir="l" state="M"/>
    <connection from=":TL2_9" to="TL22S2" fromLane="0" toLane="0" dir="r" state="M"/>
    <connection from=":TL2_10" to="TL22E" fromLane="0" toLane="1" dir="s" state="M"/>
    <connection from=":TL2_11" to="TL22N2" fromLane="0" toLane="2" dir="l" state="M"/>

</net>
