<routes>
            <vType accel="1.0" decel="4.5" id="standard_car" length="5.0" minGap="2.5" maxSpeed="25" sigma="0.5" />

            <route id="W_E" edges="W2TL TL2E"/>
            <route id="E_W" edges="E2TL TL2W"/>
            <route id="S_N" edges="S2TL TL2N"/> 
            <route id="N_S" edges="N2TL TL2S"/>
    <vehicle id="N_S_0" type="standard_car" route="N_S" depart="11.0" departLane="best" departSpeed="10" />
    <vehicle id="N_S_1" type="standard_car" route="N_S" depart="41.0" departLane="best" departSpeed="10" />
    <vehicle id="S_N_2" type="standard_car" route="S_N" depart="52.0" departLane="best" departSpeed="10" />
    <vehicle id="N_S_3" type="standard_car" route="N_S" depart="69.0" departLane="best" departSpeed="10" />
    <vehicle id="N_S_4" type="standard_car" route="N_S" depart="71.0" departLane="best" departSpeed="10" />
    <vehicle id="S_N_5" type="standard_car" route="S_N" depart="85.0" departLane="best" departSpeed="10" />
    <vehicle id="S_N_6" type="standard_car" route="S_N" depart="93.0" departLane="best" departSpeed="10" />
    <vehicle id="S_N_7" type="standard_car" route="S_N" depart="94.0" departLane="best" departSpeed="10" />
    <vehicle id="S_N_8" type="standard_car" route="S_N" depart="102.0" departLane="best" departSpeed="10" />
    <vehicle id="N_S_9" type="standard_car" route="N_S" depart="103.0" departLane="best" departSpeed="10" />
    <vehicle id="S_N_10" type="standard_car" route="S_N" depart="105.0" departLane="best" departSpeed="10" />
    <vehicle id="S_N_11" type="standard_car" route="S_N" depart="109.0" departLane="best" departSpeed="10" />
    <vehicle id="S_N_12" type="standard_car" route="S_N" depart="113.0" departLane="best" departSpeed="10" />
    <vehicle id="S_N_13" type="standard_car" route="S_N" depart="118.0" departLane="best" departSpeed="10" />
    <vehicle id="W_E_14" type="standard_car" route="W_E" depart="123.0" departLane="best" departSpeed="10" />
    <vehicle id="N_S_15" type="standard_car" route="N_S" depart="127.0" departLane="best" departSpeed="10" />
    <vehicle id="S_N_16" type="standard_car" route="S_N" depart="139.0" departLane="best" departSpeed="10" />
    <vehicle id="S_N_17" type="standard_car" route="S_N" depart="140.0" departLane="best" departSpeed="10" />
    <vehicle id="N_S_18" type="standard_car" route="N_S" depart="141.0" departLane="best" departSpeed="10" />
    <vehicle id="N_S_19" type="standard_car" route="N_S" depart="142.0" departLane="best" departSpeed="10" />
    <vehicle id="S_N_20" type="standard_car" route="S_N" depart="142.0" departLane="best" departSpeed="10" />
    <vehicle id="S_N_21" type="standard_car" route="S_N" depart="143.0" departLane="best" departSpeed="10" />
    <vehicle id="N_S_22" type="standard_car" route="N_S" depart="143.0" departLane="best" departSpeed="10" />
    <vehicle id="N_S_23" type="standard_car" route="N_S" depart="144.0" departLane="best" departSpeed="10" />
    <vehicle id="N_S_24" type="standard_car" route="N_S" depart="145.0" departLane="best" departSpeed="10" />
    <vehicle id="N_S_25" type="standard_car" route="N_S" depart="150.0" departLane="best" departSpeed="10" />
    <vehicle id="N_S_26" type="standard_car" route="N_S" depart="151.0" departLane="best" departSpeed="10" />
    <vehicle id="S_N_27" type="standard_car" route="S_N" depart="153.0" departLane="best" departSpeed="10" />
    <vehicle id="S_N_28" type="standard_car" route="S_N" depart="153.0" departLane="best" departSpeed="10" />
    <vehicle id="N_S_29" type="standard_car" route="N_S" depart="153.0" departLane="best" departSpeed="10" />
    <vehicle id="S_N_30" type="standard_car" route="S_N" depart="157.0" departLane="best" departSpeed="10" />
    <vehicle id="E_W_31" type="standard_car" route="E_W" depart="157.0" departLane="best" departSpeed="10" />
    <vehicle id="N_S_32" type="standard_car" route="N_S" depart="162.0" departLane="best" departSpeed="10" />
    <vehicle id="N_S_33" type="standard_car" route="N_S" depart="164.0" departLane="best" departSpeed="10" />
    <vehicle id="N_S_34" type="standard_car" route="N_S" depart="164.0" departLane="best" departSpeed="10" />
    <vehicle id="S_N_35" type="standard_car" route="S_N" depart="167.0" departLane="best" departSpeed="10" />
    <vehicle id="N_S_36" type="standard_car" route="N_S" depart="171.0" departLane="best" departSpeed="10" />
    <vehicle id="S_N_37" type="standard_car" route="S_N" depart="173.0" departLane="best" departSpeed="10" />
    <vehicle id="N_S_38" type="standard_car" route="N_S" depart="174.0" departLane="best" departSpeed="10" />
    <vehicle id="S_N_39" type="standard_car" route="S_N" depart="175.0" departLane="best" departSpeed="10" />
    <vehicle id="N_S_40" type="standard_car" route="N_S" depart="177.0" departLane="best" departSpeed="10" />
    <vehicle id="N_S_41" type="standard_car" route="N_S" depart="177.0" departLane="best" departSpeed="10" />
    <vehicle id="S_N_42" type="standard_car" route="S_N" depart="178.0" departLane="best" departSpeed="10" />
    <vehicle id="N_S_43" type="standard_car" route="N_S" depart="179.0" departLane="best" departSpeed="10" />
    <vehicle id="N_S_44" type="standard_car" route="N_S" depart="179.0" departLane="best" departSpeed="10" />
    <vehicle id="N_S_45" type="standard_car" route="N_S" depart="180.0" departLane="best" departSpeed="10" />
    <vehicle id="N_S_46" type="standard_car" route="N_S" depart="180.0" departLane="best" departSpeed="10" />
    <vehicle id="N_S_47" type="standard_car" route="N_S" depart="183.0" departLane="best" departSpeed="10" />
    <vehicle id="W_E_48" type="standard_car" route="W_E" depart="186.0" departLane="best" departSpeed="10" />
    <vehicle id="E_W_49" type="standard_car" route="E_W" depart="188.0" departLane="best" departSpeed="10" />
    <vehicle id="S_N_50" type="standard_car" route="S_N" depart="192.0" departLane="best" departSpeed="10" />
    <vehicle id="S_N_51" type="standard_car" route="S_N" depart="193.0" departLane="best" departSpeed="10" />
    <vehicle id="N_S_52" type="standard_car" route="N_S" depart="196.0" departLane="best" departSpeed="10" />
    <vehicle id="N_S_53" type="standard_car" route="N_S" depart="196.0" departLane="best" departSpeed="10" />
    <vehicle id="W_E_54" type="standard_car" route="W_E" depart="196.0" departLane="best" departSpeed="10" />
    <vehicle id="W_E_55" type="standard_car" route="W_E" depart="197.0" departLane="best" departSpeed="10" />
    <vehicle id="S_N_56" type="standard_car" route="S_N" depart="197.0" departLane="best" departSpeed="10" />
    <vehicle id="S_N_57" type="standard_car" route="S_N" depart="197.0" departLane="best" departSpeed="10" />
    <vehicle id="S_N_58" type="standard_car" route="S_N" depart="198.0" departLane="best" departSpeed="10" />
    <vehicle id="N_S_59" type="standard_car" route="N_S" depart="202.0" departLane="best" departSpeed="10" />
    <vehicle id="N_S_60" type="standard_car" route="N_S" depart="205.0" departLane="best" departSpeed="10" />
    <vehicle id="N_S_61" type="standard_car" route="N_S" depart="207.0" departLane="best" departSpeed="10" />
    <vehicle id="N_S_62" type="standard_car" route="N_S" depart="208.0" departLane="best" departSpeed="10" />
    <vehicle id="N_S_63" type="standard_car" route="N_S" depart="210.0" departLane="best" departSpeed="10" />
    <vehicle id="N_S_64" type="standard_car" route="N_S" depart="212.0" departLane="best" departSpeed="10" />
    <vehicle id="E_W_65" type="standard_car" route="E_W" depart="214.0" departLane="best" departSpeed="10" />
    <vehicle id="S_N_66" type="standard_car" route="S_N" depart="220.0" departLane="best" departSpeed="10" />
    <vehicle id="N_S_67" type="standard_car" route="N_S" depart="221.0" departLane="best" departSpeed="10" />
    <vehicle id="N_S_68" type="standard_car" route="N_S" depart="222.0" departLane="best" departSpeed="10" />
    <vehicle id="N_S_69" type="standard_car" route="N_S" depart="222.0" departLane="best" departSpeed="10" />
    <vehicle id="S_N_70" type="standard_car" route="S_N" depart="222.0" departLane="best" departSpeed="10" />
    <vehicle id="N_S_71" type="standard_car" route="N_S" depart="227.0" departLane="best" departSpeed="10" />
    <vehicle id="N_S_72" type="standard_car" route="N_S" depart="228.0" departLane="best" departSpeed="10" />
    <vehicle id="N_S_73" type="standard_car" route="N_S" depart="230.0" departLane="best" departSpeed="10" />
    <vehicle id="S_N_74" type="standard_car" route="S_N" depart="231.0" departLane="best" departSpeed="10" />
    <vehicle id="N_S_75" type="standard_car" route="N_S" depart="231.0" departLane="best" departSpeed="10" />
    <vehicle id="N_S_76" type="standard_car" route="N_S" depart="232.0" departLane="best" departSpeed="10" />
    <vehicle id="N_S_77" type="standard_car" route="N_S" depart="234.0" departLane="best" departSpeed="10" />
    <vehicle id="N_S_78" type="standard_car" route="N_S" depart="235.0" departLane="best" departSpeed="10" />
    <vehicle id="N_S_79" type="standard_car" route="N_S" depart="236.0" departLane="best" departSpeed="10" />
    <vehicle id="S_N_80" type="standard_car" route="S_N" depart="238.0" departLane="best" departSpeed="10" />
    <vehicle id="N_S_81" type="standard_car" route="N_S" depart="239.0" departLane="best" departSpeed="10" />
    <vehicle id="S_N_82" type="standard_car" route="S_N" depart="240.0" departLane="best" departSpeed="10" />
    <vehicle id="S_N_83" type="standard_car" route="S_N" depart="241.0" departLane="best" departSpeed="10" />
    <vehicle id="S_N_84" type="standard_car" route="S_N" depart="242.0" departLane="best" departSpeed="10" />
    <vehicle id="S_N_85" type="standard_car" route="S_N" depart="244.0" departLane="best" departSpeed="10" />
    <vehicle id="S_N_86" type="standard_car" route="S_N" depart="246.0" departLane="best" departSpeed="10" />
    <vehicle id="S_N_87" type="standard_car" route="S_N" depart="246.0" departLane="best" departSpeed="10" />
    <vehicle id="E_W_88" type="standard_car" route="E_W" depart="247.0" departLane="best" departSpeed="10" />
    <vehicle id="N_S_89" type="standard_car" route="N_S" depart="250.0" departLane="best" departSpeed="10" />
    <vehicle id="N_S_90" type="standard_car" route="N_S" depart="252.0" departLane="best" departSpeed="10" />
    <vehicle id="E_W_91" type="standard_car" route="E_W" depart="252.0" departLane="best" departSpeed="10" />
    <vehicle id="N_S_92" type="standard_car" route="N_S" depart="252.0" departLane="best" departSpeed="10" />
    <vehicle id="S_N_93" type="standard_car" route="S_N" depart="253.0" departLane="best" departSpeed="10" />
    <vehicle id="S_N_94" type="standard_car" route="S_N" depart="254.0" departLane="best" departSpeed="10" />
    <vehicle id="N_S_95" type="standard_car" route="N_S" depart="254.0" departLane="best" departSpeed="10" />
    <vehicle id="E_W_96" type="standard_car" route="E_W" depart="255.0" departLane="best" departSpeed="10" />
    <vehicle id="N_S_97" type="standard_car" route="N_S" depart="258.0" departLane="best" departSpeed="10" />
    <vehicle id="N_S_98" type="standard_car" route="N_S" depart="259.0" departLane="best" departSpeed="10" />
    <vehicle id="E_W_99" type="standard_car" route="E_W" depart="259.0" departLane="best" departSpeed="10" />
    <vehicle id="S_N_100" type="standard_car" route="S_N" depart="266.0" departLane="best" departSpeed="10" />
    <vehicle id="N_S_101" type="standard_car" route="N_S" depart="266.0" departLane="best" departSpeed="10" />
    <vehicle id="N_S_102" type="standard_car" route="N_S" depart="270.0" departLane="best" departSpeed="10" />
    <vehicle id="S_N_103" type="standard_car" route="S_N" depart="270.0" departLane="best" departSpeed="10" />
    <vehicle id="S_N_104" type="standard_car" route="S_N" depart="273.0" departLane="best" departSpeed="10" />
    <vehicle id="N_S_105" type="standard_car" route="N_S" depart="274.0" departLane="best" departSpeed="10" />
    <vehicle id="S_N_106" type="standard_car" route="S_N" depart="278.0" departLane="best" departSpeed="10" />
    <vehicle id="S_N_107" type="standard_car" route="S_N" depart="278.0" departLane="best" departSpeed="10" />
    <vehicle id="N_S_108" type="standard_car" route="N_S" depart="279.0" departLane="best" departSpeed="10" />
    <vehicle id="E_W_109" type="standard_car" route="E_W" depart="279.0" departLane="best" departSpeed="10" />
    <vehicle id="N_S_110" type="standard_car" route="N_S" depart="281.0" departLane="best" departSpeed="10" />
    <vehicle id="W_E_111" type="standard_car" route="W_E" depart="283.0" departLane="best" departSpeed="10" />
    <vehicle id="N_S_112" type="standard_car" route="N_S" depart="284.0" departLane="best" departSpeed="10" />
    <vehicle id="S_N_113" type="standard_car" route="S_N" depart="289.0" departLane="best" departSpeed="10" />
    <vehicle id="S_N_114" type="standard_car" route="S_N" depart="289.0" departLane="best" departSpeed="10" />
    <vehicle id="N_S_115" type="standard_car" route="N_S" depart="296.0" departLane="best" departSpeed="10" />
    <vehicle id="N_S_116" type="standard_car" route="N_S" depart="296.0" departLane="best" departSpeed="10" />
    <vehicle id="E_W_117" type="standard_car" route="E_W" depart="297.0" departLane="best" departSpeed="10" />
    <vehicle id="N_S_118" type="standard_car" route="N_S" depart="297.0" departLane="best" departSpeed="10" />
    <vehicle id="N_S_119" type="standard_car" route="N_S" depart="297.0" departLane="best" departSpeed="10" />
    <vehicle id="N_S_120" type="standard_car" route="N_S" depart="299.0" departLane="best" departSpeed="10" />
    <vehicle id="S_N_121" type="standard_car" route="S_N" depart="301.0" departLane="best" departSpeed="10" />
    <vehicle id="S_N_122" type="standard_car" route="S_N" depart="302.0" departLane="best" departSpeed="10" />
    <vehicle id="N_S_123" type="standard_car" route="N_S" depart="303.0" departLane="best" departSpeed="10" />
    <vehicle id="S_N_124" type="standard_car" route="S_N" depart="304.0" departLane="best" departSpeed="10" />
    <vehicle id="N_S_125" type="standard_car" route="N_S" depart="307.0" departLane="best" departSpeed="10" />
    <vehicle id="S_N_126" type="standard_car" route="S_N" depart="307.0" departLane="best" departSpeed="10" />
    <vehicle id="N_S_127" type="standard_car" route="N_S" depart="309.0" departLane="best" departSpeed="10" />
    <vehicle id="N_S_128" type="standard_car" route="N_S" depart="309.0" departLane="best" departSpeed="10" />
    <vehicle id="N_S_129" type="standard_car" route="N_S" depart="310.0" departLane="best" departSpeed="10" />
    <vehicle id="N_S_130" type="standard_car" route="N_S" depart="310.0" departLane="best" departSpeed="10" />
    <vehicle id="N_S_131" type="standard_car" route="N_S" depart="311.0" departLane="best" departSpeed="10" />
    <vehicle id="S_N_132" type="standard_car" route="S_N" depart="311.0" departLane="best" departSpeed="10" />
    <vehicle id="S_N_133" type="standard_car" route="S_N" depart="311.0" departLane="best" departSpeed="10" />
    <vehicle id="N_S_134" type="standard_car" route="N_S" depart="313.0" departLane="best" departSpeed="10" />
    <vehicle id="S_N_135" type="standard_car" route="S_N" depart="313.0" departLane="best" departSpeed="10" />
    <vehicle id="N_S_136" type="standard_car" route="N_S" depart="314.0" departLane="best" departSpeed="10" />
    <vehicle id="S_N_137" type="standard_car" route="S_N" depart="315.0" departLane="best" departSpeed="10" />
    <vehicle id="N_S_138" type="standard_car" route="N_S" depart="316.0" departLane="best" departSpeed="10" />
    <vehicle id="S_N_139" type="standard_car" route="S_N" depart="316.0" departLane="best" departSpeed="10" />
    <vehicle id="N_S_140" type="standard_car" route="N_S" depart="316.0" departLane="best" departSpeed="10" />
    <vehicle id="S_N_141" type="standard_car" route="S_N" depart="318.0" departLane="best" departSpeed="10" />
    <vehicle id="S_N_142" type="standard_car" route="S_N" depart="318.0" departLane="best" departSpeed="10" />
    <vehicle id="S_N_143" type="standard_car" route="S_N" depart="319.0" departLane="best" departSpeed="10" />
    <vehicle id="S_N_144" type="standard_car" route="S_N" depart="319.0" departLane="best" departSpeed="10" />
    <vehicle id="N_S_145" type="standard_car" route="N_S" depart="320.0" departLane="best" departSpeed="10" />
    <vehicle id="S_N_146" type="standard_car" route="S_N" depart="323.0" departLane="best" departSpeed="10" />
    <vehicle id="S_N_147" type="standard_car" route="S_N" depart="323.0" departLane="best" departSpeed="10" />
    <vehicle id="N_S_148" type="standard_car" route="N_S" depart="324.0" departLane="best" departSpeed="10" />
    <vehicle id="S_N_149" type="standard_car" route="S_N" depart="325.0" departLane="best" departSpeed="10" />
    <vehicle id="S_N_150" type="standard_car" route="S_N" depart="326.0" departLane="best" departSpeed="10" />
    <vehicle id="N_S_151" type="standard_car" route="N_S" depart="329.0" departLane="best" departSpeed="10" />
    <vehicle id="S_N_152" type="standard_car" route="S_N" depart="330.0" departLane="best" departSpeed="10" />
    <vehicle id="N_S_153" type="standard_car" route="N_S" depart="330.0" departLane="best" departSpeed="10" />
    <vehicle id="S_N_154" type="standard_car" route="S_N" depart="331.0" departLane="best" departSpeed="10" />
    <vehicle id="S_N_155" type="standard_car" route="S_N" depart="332.0" departLane="best" departSpeed="10" />
    <vehicle id="S_N_156" type="standard_car" route="S_N" depart="335.0" departLane="best" departSpeed="10" />
    <vehicle id="N_S_157" type="standard_car" route="N_S" depart="337.0" departLane="best" departSpeed="10" />
    <vehicle id="E_W_158" type="standard_car" route="E_W" depart="338.0" departLane="best" departSpeed="10" />
    <vehicle id="S_N_159" type="standard_car" route="S_N" depart="338.0" departLane="best" departSpeed="10" />
    <vehicle id="W_E_160" type="standard_car" route="W_E" depart="339.0" departLane="best" departSpeed="10" />
    <vehicle id="N_S_161" type="standard_car" route="N_S" depart="339.0" departLane="best" departSpeed="10" />
    <vehicle id="N_S_162" type="standard_car" route="N_S" depart="340.0" departLane="best" departSpeed="10" />
    <vehicle id="S_N_163" type="standard_car" route="S_N" depart="341.0" departLane="best" departSpeed="10" />
    <vehicle id="N_S_164" type="standard_car" route="N_S" depart="342.0" departLane="best" departSpeed="10" />
    <vehicle id="S_N_165" type="standard_car" route="S_N" depart="342.0" departLane="best" departSpeed="10" />
    <vehicle id="N_S_166" type="standard_car" route="N_S" depart="345.0" departLane="best" departSpeed="10" />
    <vehicle id="N_S_167" type="standard_car" route="N_S" depart="345.0" departLane="best" departSpeed="10" />
    <vehicle id="N_S_168" type="standard_car" route="N_S" depart="345.0" departLane="best" departSpeed="10" />
    <vehicle id="S_N_169" type="standard_car" route="S_N" depart="345.0" departLane="best" departSpeed="10" />
    <vehicle id="N_S_170" type="standard_car" route="N_S" depart="348.0" departLane="best" departSpeed="10" />
    <vehicle id="E_W_171" type="standard_car" route="E_W" depart="349.0" departLane="best" departSpeed="10" />
    <vehicle id="S_N_172" type="standard_car" route="S_N" depart="350.0" departLane="best" departSpeed="10" />
    <vehicle id="S_N_173" type="standard_car" route="S_N" depart="351.0" departLane="best" departSpeed="10" />
    <vehicle id="S_N_174" type="standard_car" route="S_N" depart="351.0" departLane="best" departSpeed="10" />
    <vehicle id="S_N_175" type="standard_car" route="S_N" depart="351.0" departLane="best" departSpeed="10" />
    <vehicle id="N_S_176" type="standard_car" route="N_S" depart="353.0" departLane="best" departSpeed="10" />
    <vehicle id="S_N_177" type="standard_car" route="S_N" depart="353.0" departLane="best" departSpeed="10" />
    <vehicle id="W_E_178" type="standard_car" route="W_E" depart="354.0" departLane="best" departSpeed="10" />
    <vehicle id="N_S_179" type="standard_car" route="N_S" depart="355.0" departLane="best" departSpeed="10" />
    <vehicle id="S_N_180" type="standard_car" route="S_N" depart="356.0" departLane="best" departSpeed="10" />
    <vehicle id="N_S_181" type="standard_car" route="N_S" depart="357.0" departLane="best" departSpeed="10" />
    <vehicle id="S_N_182" type="standard_car" route="S_N" depart="357.0" departLane="best" departSpeed="10" />
    <vehicle id="N_S_183" type="standard_car" route="N_S" depart="364.0" departLane="best" departSpeed="10" />
    <vehicle id="S_N_184" type="standard_car" route="S_N" depart="366.0" departLane="best" departSpeed="10" />
    <vehicle id="N_S_185" type="standard_car" route="N_S" depart="367.0" departLane="best" departSpeed="10" />
    <vehicle id="W_E_186" type="standard_car" route="W_E" depart="368.0" departLane="best" departSpeed="10" />
    <vehicle id="N_S_187" type="standard_car" route="N_S" depart="370.0" departLane="best" departSpeed="10" />
    <vehicle id="W_E_188" type="standard_car" route="W_E" depart="370.0" departLane="best" departSpeed="10" />
    <vehicle id="N_S_189" type="standard_car" route="N_S" depart="371.0" departLane="best" departSpeed="10" />
    <vehicle id="W_E_190" type="standard_car" route="W_E" depart="373.0" departLane="best" departSpeed="10" />
    <vehicle id="N_S_191" type="standard_car" route="N_S" depart="373.0" departLane="best" departSpeed="10" />
    <vehicle id="S_N_192" type="standard_car" route="S_N" depart="375.0" departLane="best" departSpeed="10" />
    <vehicle id="W_E_193" type="standard_car" route="W_E" depart="376.0" departLane="best" departSpeed="10" />
    <vehicle id="N_S_194" type="standard_car" route="N_S" depart="377.0" departLane="best" departSpeed="10" />
    <vehicle id="S_N_195" type="standard_car" route="S_N" depart="378.0" departLane="best" departSpeed="10" />
    <vehicle id="S_N_196" type="standard_car" route="S_N" depart="380.0" departLane="best" departSpeed="10" />
    <vehicle id="N_S_197" type="standard_car" route="N_S" depart="381.0" departLane="best" departSpeed="10" />
    <vehicle id="N_S_198" type="standard_car" route="N_S" depart="383.0" departLane="best" departSpeed="10" />
    <vehicle id="N_S_199" type="standard_car" route="N_S" depart="384.0" departLane="best" departSpeed="10" />
    <vehicle id="S_N_200" type="standard_car" route="S_N" depart="385.0" departLane="best" departSpeed="10" />
    <vehicle id="N_S_201" type="standard_car" route="N_S" depart="386.0" departLane="best" departSpeed="10" />
    <vehicle id="S_N_202" type="standard_car" route="S_N" depart="388.0" departLane="best" departSpeed="10" />
    <vehicle id="N_S_203" type="standard_car" route="N_S" depart="389.0" departLane="best" departSpeed="10" />
    <vehicle id="E_W_204" type="standard_car" route="E_W" depart="390.0" departLane="best" departSpeed="10" />
    <vehicle id="S_N_205" type="standard_car" route="S_N" depart="391.0" departLane="best" departSpeed="10" />
    <vehicle id="S_N_206" type="standard_car" route="S_N" depart="395.0" departLane="best" departSpeed="10" />
    <vehicle id="S_N_207" type="standard_car" route="S_N" depart="397.0" departLane="best" departSpeed="10" />
    <vehicle id="N_S_208" type="standard_car" route="N_S" depart="398.0" departLane="best" departSpeed="10" />
    <vehicle id="N_S_209" type="standard_car" route="N_S" depart="398.0" departLane="best" departSpeed="10" />
    <vehicle id="S_N_210" type="standard_car" route="S_N" depart="398.0" departLane="best" departSpeed="10" />
    <vehicle id="N_S_211" type="standard_car" route="N_S" depart="398.0" departLane="best" departSpeed="10" />
    <vehicle id="S_N_212" type="standard_car" route="S_N" depart="399.0" departLane="best" departSpeed="10" />
    <vehicle id="N_S_213" type="standard_car" route="N_S" depart="400.0" departLane="best" departSpeed="10" />
    <vehicle id="N_S_214" type="standard_car" route="N_S" depart="401.0" departLane="best" departSpeed="10" />
    <vehicle id="S_N_215" type="standard_car" route="S_N" depart="401.0" departLane="best" departSpeed="10" />
    <vehicle id="S_N_216" type="standard_car" route="S_N" depart="402.0" departLane="best" departSpeed="10" />
    <vehicle id="W_E_217" type="standard_car" route="W_E" depart="402.0" departLane="best" departSpeed="10" />
    <vehicle id="S_N_218" type="standard_car" route="S_N" depart="402.0" departLane="best" departSpeed="10" />
    <vehicle id="S_N_219" type="standard_car" route="S_N" depart="403.0" departLane="best" departSpeed="10" />
    <vehicle id="N_S_220" type="standard_car" route="N_S" depart="403.0" departLane="best" departSpeed="10" />
    <vehicle id="S_N_221" type="standard_car" route="S_N" depart="404.0" departLane="best" departSpeed="10" />
    <vehicle id="S_N_222" type="standard_car" route="S_N" depart="405.0" departLane="best" departSpeed="10" />
    <vehicle id="E_W_223" type="standard_car" route="E_W" depart="407.0" departLane="best" departSpeed="10" />
    <vehicle id="W_E_224" type="standard_car" route="W_E" depart="409.0" departLane="best" departSpeed="10" />
    <vehicle id="N_S_225" type="standard_car" route="N_S" depart="410.0" departLane="best" departSpeed="10" />
    <vehicle id="N_S_226" type="standard_car" route="N_S" depart="411.0" departLane="best" departSpeed="10" />
    <vehicle id="S_N_227" type="standard_car" route="S_N" depart="414.0" departLane="best" departSpeed="10" />
    <vehicle id="E_W_228" type="standard_car" route="E_W" depart="415.0" departLane="best" departSpeed="10" />
    <vehicle id="N_S_229" type="standard_car" route="N_S" depart="416.0" departLane="best" departSpeed="10" />
    <vehicle id="S_N_230" type="standard_car" route="S_N" depart="416.0" departLane="best" departSpeed="10" />
    <vehicle id="W_E_231" type="standard_car" route="W_E" depart="417.0" departLane="best" departSpeed="10" />
    <vehicle id="S_N_232" type="standard_car" route="S_N" depart="417.0" departLane="best" departSpeed="10" />
    <vehicle id="S_N_233" type="standard_car" route="S_N" depart="418.0" departLane="best" departSpeed="10" />
    <vehicle id="S_N_234" type="standard_car" route="S_N" depart="419.0" departLane="best" departSpeed="10" />
    <vehicle id="S_N_235" type="standard_car" route="S_N" depart="419.0" departLane="best" departSpeed="10" />
    <vehicle id="N_S_236" type="standard_car" route="N_S" depart="420.0" departLane="best" departSpeed="10" />
    <vehicle id="S_N_237" type="standard_car" route="S_N" depart="421.0" departLane="best" departSpeed="10" />
    <vehicle id="W_E_238" type="standard_car" route="W_E" depart="422.0" departLane="best" departSpeed="10" />
    <vehicle id="S_N_239" type="standard_car" route="S_N" depart="422.0" departLane="best" departSpeed="10" />
    <vehicle id="S_N_240" type="standard_car" route="S_N" depart="423.0" departLane="best" departSpeed="10" />
    <vehicle id="N_S_241" type="standard_car" route="N_S" depart="424.0" departLane="best" departSpeed="10" />
    <vehicle id="N_S_242" type="standard_car" route="N_S" depart="424.0" departLane="best" departSpeed="10" />
    <vehicle id="N_S_243" type="standard_car" route="N_S" depart="425.0" departLane="best" departSpeed="10" />
    <vehicle id="S_N_244" type="standard_car" route="S_N" depart="426.0" departLane="best" departSpeed="10" />
    <vehicle id="S_N_245" type="standard_car" route="S_N" depart="427.0" departLane="best" departSpeed="10" />
    <vehicle id="S_N_246" type="standard_car" route="S_N" depart="429.0" departLane="best" departSpeed="10" />
    <vehicle id="S_N_247" type="standard_car" route="S_N" depart="430.0" departLane="best" departSpeed="10" />
    <vehicle id="N_S_248" type="standard_car" route="N_S" depart="430.0" departLane="best" departSpeed="10" />
    <vehicle id="N_S_249" type="standard_car" route="N_S" depart="430.0" departLane="best" departSpeed="10" />
    <vehicle id="N_S_250" type="standard_car" route="N_S" depart="432.0" departLane="best" departSpeed="10" />
    <vehicle id="N_S_251" type="standard_car" route="N_S" depart="432.0" departLane="best" departSpeed="10" />
    <vehicle id="S_N_252" type="standard_car" route="S_N" depart="432.0" departLane="best" departSpeed="10" />
    <vehicle id="N_S_253" type="standard_car" route="N_S" depart="434.0" departLane="best" departSpeed="10" />
    <vehicle id="S_N_254" type="standard_car" route="S_N" depart="434.0" departLane="best" departSpeed="10" />
    <vehicle id="N_S_255" type="standard_car" route="N_S" depart="434.0" departLane="best" departSpeed="10" />
    <vehicle id="S_N_256" type="standard_car" route="S_N" depart="434.0" departLane="best" departSpeed="10" />
    <vehicle id="N_S_257" type="standard_car" route="N_S" depart="435.0" departLane="best" departSpeed="10" />
    <vehicle id="S_N_258" type="standard_car" route="S_N" depart="436.0" departLane="best" departSpeed="10" />
    <vehicle id="N_S_259" type="standard_car" route="N_S" depart="437.0" departLane="best" departSpeed="10" />
    <vehicle id="S_N_260" type="standard_car" route="S_N" depart="439.0" departLane="best" departSpeed="10" />
    <vehicle id="S_N_261" type="standard_car" route="S_N" depart="439.0" departLane="best" departSpeed="10" />
    <vehicle id="S_N_262" type="standard_car" route="S_N" depart="440.0" departLane="best" departSpeed="10" />
    <vehicle id="S_N_263" type="standard_car" route="S_N" depart="441.0" departLane="best" departSpeed="10" />
    <vehicle id="N_S_264" type="standard_car" route="N_S" depart="442.0" departLane="best" departSpeed="10" />
    <vehicle id="W_E_265" type="standard_car" route="W_E" depart="444.0" departLane="best" departSpeed="10" />
    <vehicle id="N_S_266" type="standard_car" route="N_S" depart="444.0" departLane="best" departSpeed="10" />
    <vehicle id="S_N_267" type="standard_car" route="S_N" depart="445.0" departLane="best" departSpeed="10" />