<routes>
            <vType accel="1.0" decel="4.5" id="standard_car" length="5.0" minGap="2.5" maxSpeed="25" sigma="0.5" />

            <route id="W_N" edges="W2TL TL2N"/>
            <route id="W_E" edges="W2TL TL2E"/>
            <route id="W_S" edges="W2TL TL2S"/>
            <route id="N_W" edges="N2TL TL2W"/>
            <route id="N_E" edges="N2TL TL2E"/>
            <route id="N_S" edges="N2TL TL2S"/>

            <route id="E_W" edges="E2TL TL2W"/>
            <route id="E_N" edges="E2TL TL2N"/>
            <route id="E_S" edges="E2TL TL2S"/>
            <route id="S_W" edges="S2TL TL2W"/>
            <route id="S_N" edges="S2TL TL2N"/>
            <route id="S_E" edges="S2TL TL2E"/>
    <vehicle id="N_S_0" type="standard_car" route="N_S" depart="5.0" departLane="best" departSpeed="10" />
    <vehicle id="S_E_1" type="standard_car" route="S_E" depart="81.0" departLane="best" departSpeed="10" />
    <vehicle id="W_E_2" type="standard_car" route="W_E" depart="97.0" departLane="best" departSpeed="10" />
    <vehicle id="N_S_3" type="standard_car" route="N_S" depart="99.0" departLane="best" departSpeed="10" />
    <vehicle id="N_S_4" type="standard_car" route="N_S" depart="99.0" departLane="best" departSpeed="10" />
    <vehicle id="S_N_5" type="standard_car" route="S_N" depart="113.0" departLane="best" departSpeed="10" />
    <vehicle id="E_W_6" type="standard_car" route="E_W" depart="142.0" departLane="best" departSpeed="10" />
    <vehicle id="N_W_7" type="standard_car" route="N_W" depart="143.0" departLane="best" departSpeed="10" />
    <vehicle id="N_S_8" type="standard_car" route="N_S" depart="146.0" departLane="best" departSpeed="10" />
    <vehicle id="S_N_9" type="standard_car" route="S_N" depart="148.0" departLane="best" departSpeed="10" />
    <vehicle id="S_N_10" type="standard_car" route="S_N" depart="150.0" departLane="best" departSpeed="10" />
    <vehicle id="N_E_11" type="standard_car" route="N_E" depart="151.0" departLane="best" departSpeed="10" />
    <vehicle id="N_W_12" type="standard_car" route="N_W" depart="186.0" departLane="best" departSpeed="10" />
    <vehicle id="N_S_13" type="standard_car" route="N_S" depart="203.0" departLane="best" departSpeed="10" />
    <vehicle id="W_E_14" type="standard_car" route="W_E" depart="204.0" departLane="best" departSpeed="10" />
    <vehicle id="E_W_15" type="standard_car" route="E_W" depart="214.0" departLane="best" departSpeed="10" />
    <vehicle id="N_S_16" type="standard_car" route="N_S" depart="217.0" departLane="best" departSpeed="10" />
    <vehicle id="N_S_17" type="standard_car" route="N_S" depart="228.0" departLane="best" departSpeed="10" />
    <vehicle id="N_W_18" type="standard_car" route="N_W" depart="232.0" departLane="best" departSpeed="10" />
    <vehicle id="S_N_19" type="standard_car" route="S_N" depart="237.0" departLane="best" departSpeed="10" />
    <vehicle id="N_S_20" type="standard_car" route="N_S" depart="241.0" departLane="best" departSpeed="10" />
    <vehicle id="N_S_21" type="standard_car" route="N_S" depart="243.0" departLane="best" departSpeed="10" />
    <vehicle id="S_E_22" type="standard_car" route="S_E" depart="248.0" departLane="best" departSpeed="10" />
    <vehicle id="N_S_23" type="standard_car" route="N_S" depart="248.0" departLane="best" departSpeed="10" />
    <vehicle id="N_E_24" type="standard_car" route="N_E" depart="249.0" departLane="best" departSpeed="10" />
    <vehicle id="S_N_25" type="standard_car" route="S_N" depart="253.0" departLane="best" departSpeed="10" />
    <vehicle id="N_S_26" type="standard_car" route="N_S" depart="253.0" departLane="best" departSpeed="10" />
    <vehicle id="S_N_27" type="standard_car" route="S_N" depart="262.0" departLane="best" departSpeed="10" />
    <vehicle id="S_N_28" type="standard_car" route="S_N" depart="266.0" departLane="best" departSpeed="10" />
    <vehicle id="S_N_29" type="standard_car" route="S_N" depart="269.0" departLane="best" departSpeed="10" />
    <vehicle id="N_S_30" type="standard_car" route="N_S" depart="273.0" departLane="best" departSpeed="10" />
    <vehicle id="W_E_31" type="standard_car" route="W_E" depart="275.0" departLane="best" departSpeed="10" />
    <vehicle id="S_N_32" type="standard_car" route="S_N" depart="276.0" departLane="best" departSpeed="10" />
    <vehicle id="W_E_33" type="standard_car" route="W_E" depart="285.0" departLane="best" departSpeed="10" />
    <vehicle id="N_S_34" type="standard_car" route="N_S" depart="295.0" departLane="best" departSpeed="10" />
    <vehicle id="N_S_35" type="standard_car" route="N_S" depart="295.0" departLane="best" departSpeed="10" />
    <vehicle id="S_N_36" type="standard_car" route="S_N" depart="306.0" departLane="best" departSpeed="10" />
    <vehicle id="S_N_37" type="standard_car" route="S_N" depart="308.0" departLane="best" departSpeed="10" />
    <vehicle id="S_N_38" type="standard_car" route="S_N" depart="313.0" departLane="best" departSpeed="10" />
    <vehicle id="E_W_39" type="standard_car" route="E_W" depart="314.0" departLane="best" departSpeed="10" />
    <vehicle id="N_S_40" type="standard_car" route="N_S" depart="315.0" departLane="best" departSpeed="10" />
    <vehicle id="S_N_41" type="standard_car" route="S_N" depart="320.0" departLane="best" departSpeed="10" />
    <vehicle id="S_W_42" type="standard_car" route="S_W" depart="335.0" departLane="best" departSpeed="10" />
    <vehicle id="S_N_43" type="standard_car" route="S_N" depart="338.0" departLane="best" departSpeed="10" />
    <vehicle id="N_S_44" type="standard_car" route="N_S" depart="339.0" departLane="best" departSpeed="10" />
    <vehicle id="N_S_45" type="standard_car" route="N_S" depart="339.0" departLane="best" departSpeed="10" />
    <vehicle id="S_N_46" type="standard_car" route="S_N" depart="340.0" departLane="best" departSpeed="10" />
    <vehicle id="N_S_47" type="standard_car" route="N_S" depart="341.0" departLane="best" departSpeed="10" />
    <vehicle id="E_N_48" type="standard_car" route="E_N" depart="344.0" departLane="best" departSpeed="10" />
    <vehicle id="E_N_49" type="standard_car" route="E_N" depart="344.0" departLane="best" departSpeed="10" />
    <vehicle id="S_N_50" type="standard_car" route="S_N" depart="354.0" departLane="best" departSpeed="10" />
    <vehicle id="E_N_51" type="standard_car" route="E_N" depart="355.0" departLane="best" departSpeed="10" />
    <vehicle id="N_S_52" type="standard_car" route="N_S" depart="361.0" departLane="best" departSpeed="10" />
    <vehicle id="S_E_53" type="standard_car" route="S_E" depart="365.0" departLane="best" departSpeed="10" />
    <vehicle id="S_W_54" type="standard_car" route="S_W" depart="367.0" departLane="best" departSpeed="10" />
    <vehicle id="N_S_55" type="standard_car" route="N_S" depart="374.0" departLane="best" departSpeed="10" />
    <vehicle id="E_W_56" type="standard_car" route="E_W" depart="376.0" departLane="best" departSpeed="10" />
    <vehicle id="S_W_57" type="standard_car" route="S_W" depart="380.0" departLane="best" departSpeed="10" />
    <vehicle id="S_N_58" type="standard_car" route="S_N" depart="383.0" departLane="best" departSpeed="10" />
    <vehicle id="S_N_59" type="standard_car" route="S_N" depart="384.0" departLane="best" departSpeed="10" />
    <vehicle id="N_S_60" type="standard_car" route="N_S" depart="387.0" departLane="best" departSpeed="10" />
    <vehicle id="S_N_61" type="standard_car" route="S_N" depart="388.0" departLane="best" departSpeed="10" />
    <vehicle id="N_S_62" type="standard_car" route="N_S" depart="390.0" departLane="best" departSpeed="10" />
    <vehicle id="N_E_63" type="standard_car" route="N_E" depart="392.0" departLane="best" departSpeed="10" />
    <vehicle id="S_W_64" type="standard_car" route="S_W" depart="392.0" departLane="best" departSpeed="10" />
    <vehicle id="S_N_65" type="standard_car" route="S_N" depart="392.0" departLane="best" departSpeed="10" />
    <vehicle id="N_S_66" type="standard_car" route="N_S" depart="397.0" departLane="best" departSpeed="10" />
    <vehicle id="N_S_67" type="standard_car" route="N_S" depart="398.0" departLane="best" departSpeed="10" />
    <vehicle id="N_S_68" type="standard_car" route="N_S" depart="398.0" departLane="best" departSpeed="10" />
    <vehicle id="S_N_69" type="standard_car" route="S_N" depart="401.0" departLane="best" departSpeed="10" />
    <vehicle id="N_E_70" type="standard_car" route="N_E" depart="401.0" departLane="best" departSpeed="10" />
    <vehicle id="N_S_71" type="standard_car" route="N_S" depart="401.0" departLane="best" departSpeed="10" />
    <vehicle id="N_S_72" type="standard_car" route="N_S" depart="401.0" departLane="best" departSpeed="10" />
    <vehicle id="N_E_73" type="standard_car" route="N_E" depart="403.0" departLane="best" departSpeed="10" />
    <vehicle id="S_N_74" type="standard_car" route="S_N" depart="404.0" departLane="best" departSpeed="10" />
    <vehicle id="S_N_75" type="standard_car" route="S_N" depart="407.0" departLane="best" departSpeed="10" />
    <vehicle id="S_N_76" type="standard_car" route="S_N" depart="410.0" departLane="best" departSpeed="10" />
    <vehicle id="E_W_77" type="standard_car" route="E_W" depart="410.0" departLane="best" departSpeed="10" />
    <vehicle id="E_W_78" type="standard_car" route="E_W" depart="413.0" departLane="best" departSpeed="10" />
    <vehicle id="S_N_79" type="standard_car" route="S_N" depart="415.0" departLane="best" departSpeed="10" />
    <vehicle id="S_N_80" type="standard_car" route="S_N" depart="415.0" departLane="best" departSpeed="10" />
    <vehicle id="N_E_81" type="standard_car" route="N_E" depart="417.0" departLane="best" departSpeed="10" />
    <vehicle id="E_W_82" type="standard_car" route="E_W" depart="418.0" departLane="best" departSpeed="10" />
    <vehicle id="N_E_83" type="standard_car" route="N_E" depart="421.0" departLane="best" departSpeed="10" />
    <vehicle id="N_S_84" type="standard_car" route="N_S" depart="427.0" departLane="best" departSpeed="10" />
    <vehicle id="S_N_85" type="standard_car" route="S_N" depart="428.0" departLane="best" departSpeed="10" />
    <vehicle id="S_N_86" type="standard_car" route="S_N" depart="432.0" departLane="best" departSpeed="10" />
    <vehicle id="N_S_87" type="standard_car" route="N_S" depart="435.0" departLane="best" departSpeed="10" />
    <vehicle id="S_N_88" type="standard_car" route="S_N" depart="438.0" departLane="best" departSpeed="10" />
    <vehicle id="S_N_89" type="standard_car" route="S_N" depart="439.0" departLane="best" departSpeed="10" />
    <vehicle id="N_S_90" type="standard_car" route="N_S" depart="442.0" departLane="best" departSpeed="10" />
    <vehicle id="S_N_91" type="standard_car" route="S_N" depart="443.0" departLane="best" departSpeed="10" />
    <vehicle id="S_N_92" type="standard_car" route="S_N" depart="444.0" departLane="best" departSpeed="10" />
    <vehicle id="N_S_93" type="standard_car" route="N_S" depart="452.0" departLane="best" departSpeed="10" />
    <vehicle id="S_N_94" type="standard_car" route="S_N" depart="454.0" departLane="best" departSpeed="10" />
    <vehicle id="N_S_95" type="standard_car" route="N_S" depart="454.0" departLane="best" departSpeed="10" />
    <vehicle id="S_N_96" type="standard_car" route="S_N" depart="456.0" departLane="best" departSpeed="10" />
    <vehicle id="S_N_97" type="standard_car" route="S_N" depart="457.0" departLane="best" departSpeed="10" />
    <vehicle id="N_S_98" type="standard_car" route="N_S" depart="458.0" departLane="best" departSpeed="10" />
    <vehicle id="N_S_99" type="standard_car" route="N_S" depart="464.0" departLane="best" departSpeed="10" />
    <vehicle id="S_N_100" type="standard_car" route="S_N" depart="471.0" departLane="best" departSpeed="10" />
    <vehicle id="S_E_101" type="standard_car" route="S_E" depart="473.0" departLane="best" departSpeed="10" />
    <vehicle id="S_N_102" type="standard_car" route="S_N" depart="473.0" departLane="best" departSpeed="10" />
    <vehicle id="N_S_103" type="standard_car" route="N_S" depart="477.0" departLane="best" departSpeed="10" />
    <vehicle id="N_S_104" type="standard_car" route="N_S" depart="477.0" departLane="best" departSpeed="10" />
    <vehicle id="S_W_105" type="standard_car" route="S_W" depart="478.0" departLane="best" departSpeed="10" />
    <vehicle id="N_S_106" type="standard_car" route="N_S" depart="478.0" departLane="best" departSpeed="10" />
    <vehicle id="S_N_107" type="standard_car" route="S_N" depart="483.0" departLane="best" departSpeed="10" />
    <vehicle id="W_E_108" type="standard_car" route="W_E" depart="486.0" departLane="best" departSpeed="10" />
    <vehicle id="S_N_109" type="standard_car" route="S_N" depart="487.0" departLane="best" departSpeed="10" />
    <vehicle id="N_S_110" type="standard_car" route="N_S" depart="488.0" departLane="best" departSpeed="10" />
    <vehicle id="W_S_111" type="standard_car" route="W_S" depart="489.0" departLane="best" departSpeed="10" />
    <vehicle id="N_S_112" type="standard_car" route="N_S" depart="490.0" departLane="best" departSpeed="10" />
    <vehicle id="S_N_113" type="standard_car" route="S_N" depart="490.0" departLane="best" departSpeed="10" />
    <vehicle id="S_N_114" type="standard_car" route="S_N" depart="491.0" departLane="best" departSpeed="10" />
    <vehicle id="N_S_115" type="standard_car" route="N_S" depart="492.0" departLane="best" departSpeed="10" />
    <vehicle id="N_S_116" type="standard_car" route="N_S" depart="498.0" departLane="best" departSpeed="10" />
    <vehicle id="N_S_117" type="standard_car" route="N_S" depart="499.0" departLane="best" departSpeed="10" />
    <vehicle id="S_E_118" type="standard_car" route="S_E" depart="500.0" departLane="best" departSpeed="10" />
    <vehicle id="E_W_119" type="standard_car" route="E_W" depart="501.0" departLane="best" departSpeed="10" />
    <vehicle id="N_S_120" type="standard_car" route="N_S" depart="502.0" departLane="best" departSpeed="10" />
    <vehicle id="S_N_121" type="standard_car" route="S_N" depart="504.0" departLane="best" departSpeed="10" />
    <vehicle id="S_N_122" type="standard_car" route="S_N" depart="505.0" departLane="best" departSpeed="10" />
    <vehicle id="N_S_123" type="standard_car" route="N_S" depart="507.0" departLane="best" departSpeed="10" />
    <vehicle id="E_S_124" type="standard_car" route="E_S" depart="509.0" departLane="best" departSpeed="10" />
    <vehicle id="N_S_125" type="standard_car" route="N_S" depart="510.0" departLane="best" departSpeed="10" />
    <vehicle id="E_W_126" type="standard_car" route="E_W" depart="511.0" departLane="best" departSpeed="10" />
    <vehicle id="S_W_127" type="standard_car" route="S_W" depart="511.0" departLane="best" departSpeed="10" />
    <vehicle id="N_S_128" type="standard_car" route="N_S" depart="514.0" departLane="best" departSpeed="10" />
    <vehicle id="N_S_129" type="standard_car" route="N_S" depart="515.0" departLane="best" departSpeed="10" />
    <vehicle id="W_E_130" type="standard_car" route="W_E" depart="524.0" departLane="best" departSpeed="10" />
    <vehicle id="S_N_131" type="standard_car" route="S_N" depart="525.0" departLane="best" departSpeed="10" />
    <vehicle id="S_N_132" type="standard_car" route="S_N" depart="527.0" departLane="best" departSpeed="10" />
    <vehicle id="S_N_133" type="standard_car" route="S_N" depart="527.0" departLane="best" departSpeed="10" />
    <vehicle id="S_N_134" type="standard_car" route="S_N" depart="528.0" departLane="best" departSpeed="10" />
    <vehicle id="E_W_135" type="standard_car" route="E_W" depart="535.0" departLane="best" departSpeed="10" />
    <vehicle id="S_N_136" type="standard_car" route="S_N" depart="543.0" departLane="best" departSpeed="10" />
    <vehicle id="S_N_137" type="standard_car" route="S_N" depart="546.0" departLane="best" departSpeed="10" />
    <vehicle id="S_N_138" type="standard_car" route="S_N" depart="546.0" departLane="best" departSpeed="10" />
    <vehicle id="W_E_139" type="standard_car" route="W_E" depart="551.0" departLane="best" departSpeed="10" />
    <vehicle id="N_W_140" type="standard_car" route="N_W" depart="552.0" departLane="best" departSpeed="10" />
    <vehicle id="S_N_141" type="standard_car" route="S_N" depart="555.0" departLane="best" departSpeed="10" />
    <vehicle id="N_W_142" type="standard_car" route="N_W" depart="556.0" departLane="best" departSpeed="10" />
    <vehicle id="S_N_143" type="standard_car" route="S_N" depart="556.0" departLane="best" departSpeed="10" />
    <vehicle id="N_E_144" type="standard_car" route="N_E" depart="560.0" departLane="best" departSpeed="10" />
    <vehicle id="S_W_145" type="standard_car" route="S_W" depart="564.0" departLane="best" departSpeed="10" />
    <vehicle id="S_N_146" type="standard_car" route="S_N" depart="566.0" departLane="best" departSpeed="10" />
    <vehicle id="N_W_147" type="standard_car" route="N_W" depart="566.0" departLane="best" departSpeed="10" />
    <vehicle id="N_S_148" type="standard_car" route="N_S" depart="568.0" departLane="best" departSpeed="10" />
    <vehicle id="W_E_149" type="standard_car" route="W_E" depart="573.0" departLane="best" departSpeed="10" />
    <vehicle id="S_N_150" type="standard_car" route="S_N" depart="574.0" departLane="best" departSpeed="10" />
    <vehicle id="N_S_151" type="standard_car" route="N_S" depart="575.0" departLane="best" departSpeed="10" />
    <vehicle id="N_E_152" type="standard_car" route="N_E" depart="575.0" departLane="best" departSpeed="10" />
    <vehicle id="S_N_153" type="standard_car" route="S_N" depart="577.0" departLane="best" departSpeed="10" />
    <vehicle id="E_W_154" type="standard_car" route="E_W" depart="579.0" departLane="best" departSpeed="10" />
    <vehicle id="N_S_155" type="standard_car" route="N_S" depart="585.0" departLane="best" departSpeed="10" />
    <vehicle id="N_S_156" type="standard_car" route="N_S" depart="586.0" departLane="best" departSpeed="10" />
    <vehicle id="S_N_157" type="standard_car" route="S_N" depart="586.0" departLane="best" departSpeed="10" />
    <vehicle id="N_E_158" type="standard_car" route="N_E" depart="593.0" departLane="best" departSpeed="10" />
    <vehicle id="S_N_159" type="standard_car" route="S_N" depart="596.0" departLane="best" departSpeed="10" />
    <vehicle id="N_S_160" type="standard_car" route="N_S" depart="596.0" departLane="best" departSpeed="10" />
    <vehicle id="W_S_161" type="standard_car" route="W_S" depart="601.0" departLane="best" departSpeed="10" />
    <vehicle id="S_N_162" type="standard_car" route="S_N" depart="601.0" departLane="best" departSpeed="10" />
    <vehicle id="S_N_163" type="standard_car" route="S_N" depart="601.0" departLane="best" departSpeed="10" />
    <vehicle id="S_E_164" type="standard_car" route="S_E" depart="601.0" departLane="best" departSpeed="10" />
    <vehicle id="S_N_165" type="standard_car" route="S_N" depart="603.0" departLane="best" departSpeed="10" />
    <vehicle id="N_W_166" type="standard_car" route="N_W" depart="613.0" departLane="best" departSpeed="10" />
    <vehicle id="S_N_167" type="standard_car" route="S_N" depart="614.0" departLane="best" departSpeed="10" />
    <vehicle id="N_S_168" type="standard_car" route="N_S" depart="615.0" departLane="best" departSpeed="10" />
    <vehicle id="N_E_169" type="standard_car" route="N_E" depart="616.0" departLane="best" departSpeed="10" />
    <vehicle id="N_S_170" type="standard_car" route="N_S" depart="616.0" departLane="best" departSpeed="10" />
    <vehicle id="S_N_171" type="standard_car" route="S_N" depart="618.0" departLane="best" departSpeed="10" />
    <vehicle id="E_N_172" type="standard_car" route="E_N" depart="620.0" departLane="best" departSpeed="10" />
    <vehicle id="N_S_173" type="standard_car" route="N_S" depart="621.0" departLane="best" departSpeed="10" />
    <vehicle id="S_N_174" type="standard_car" route="S_N" depart="621.0" departLane="best" departSpeed="10" />
    <vehicle id="W_E_175" type="standard_car" route="W_E" depart="621.0" departLane="best" departSpeed="10" />
    <vehicle id="S_N_176" type="standard_car" route="S_N" depart="623.0" departLane="best" departSpeed="10" />
    <vehicle id="N_W_177" type="standard_car" route="N_W" depart="624.0" departLane="best" departSpeed="10" />
    <vehicle id="E_W_178" type="standard_car" route="E_W" depart="625.0" departLane="best" departSpeed="10" />
    <vehicle id="N_S_179" type="standard_car" route="N_S" depart="627.0" departLane="best" departSpeed="10" />
    <vehicle id="N_S_180" type="standard_car" route="N_S" depart="632.0" departLane="best" departSpeed="10" />
    <vehicle id="N_S_181" type="standard_car" route="N_S" depart="634.0" departLane="best" departSpeed="10" />
    <vehicle id="N_S_182" type="standard_car" route="N_S" depart="636.0" departLane="best" departSpeed="10" />
    <vehicle id="S_N_183" type="standard_car" route="S_N" depart="638.0" departLane="best" departSpeed="10" />
    <vehicle id="S_E_184" type="standard_car" route="S_E" depart="641.0" departLane="best" departSpeed="10" />
    <vehicle id="N_E_185" type="standard_car" route="N_E" depart="642.0" departLane="best" departSpeed="10" />
    <vehicle id="N_S_186" type="standard_car" route="N_S" depart="642.0" departLane="best" departSpeed="10" />
    <vehicle id="N_S_187" type="standard_car" route="N_S" depart="644.0" departLane="best" departSpeed="10" />
    <vehicle id="N_S_188" type="standard_car" route="N_S" depart="646.0" departLane="best" departSpeed="10" />
    <vehicle id="S_N_189" type="standard_car" route="S_N" depart="647.0" departLane="best" departSpeed="10" />
    <vehicle id="S_N_190" type="standard_car" route="S_N" depart="647.0" departLane="best" departSpeed="10" />
    <vehicle id="N_S_191" type="standard_car" route="N_S" depart="648.0" departLane="best" departSpeed="10" />
    <vehicle id="N_W_192" type="standard_car" route="N_W" depart="650.0" departLane="best" departSpeed="10" />
    <vehicle id="S_N_193" type="standard_car" route="S_N" depart="652.0" departLane="best" departSpeed="10" />
    <vehicle id="E_W_194" type="standard_car" route="E_W" depart="653.0" departLane="best" departSpeed="10" />
    <vehicle id="N_S_195" type="standard_car" route="N_S" depart="655.0" departLane="best" departSpeed="10" />
    <vehicle id="S_E_196" type="standard_car" route="S_E" depart="657.0" departLane="best" departSpeed="10" />
    <vehicle id="S_N_197" type="standard_car" route="S_N" depart="658.0" departLane="best" departSpeed="10" />
    <vehicle id="S_N_198" type="standard_car" route="S_N" depart="661.0" departLane="best" departSpeed="10" />
    <vehicle id="S_N_199" type="standard_car" route="S_N" depart="662.0" departLane="best" departSpeed="10" />
    <vehicle id="S_N_200" type="standard_car" route="S_N" depart="664.0" departLane="best" departSpeed="10" />
    <vehicle id="N_S_201" type="standard_car" route="N_S" depart="665.0" departLane="best" departSpeed="10" />
    <vehicle id="N_S_202" type="standard_car" route="N_S" depart="665.0" departLane="best" departSpeed="10" />
    <vehicle id="N_W_203" type="standard_car" route="N_W" depart="666.0" departLane="best" departSpeed="10" />
    <vehicle id="N_S_204" type="standard_car" route="N_S" depart="672.0" departLane="best" departSpeed="10" />
    <vehicle id="N_S_205" type="standard_car" route="N_S" depart="673.0" departLane="best" departSpeed="10" />
    <vehicle id="S_N_206" type="standard_car" route="S_N" depart="678.0" departLane="best" departSpeed="10" />
    <vehicle id="W_E_207" type="standard_car" route="W_E" depart="678.0" departLane="best" departSpeed="10" />
    <vehicle id="N_S_208" type="standard_car" route="N_S" depart="683.0" departLane="best" departSpeed="10" />
    <vehicle id="S_N_209" type="standard_car" route="S_N" depart="684.0" departLane="best" departSpeed="10" />
    <vehicle id="S_N_210" type="standard_car" route="S_N" depart="684.0" departLane="best" departSpeed="10" />
    <vehicle id="S_N_211" type="standard_car" route="S_N" depart="685.0" departLane="best" departSpeed="10" />
    <vehicle id="S_N_212" type="standard_car" route="S_N" depart="693.0" departLane="best" departSpeed="10" />
    <vehicle id="N_S_213" type="standard_car" route="N_S" depart="696.0" departLane="best" departSpeed="10" />
    <vehicle id="S_W_214" type="standard_car" route="S_W" depart="696.0" departLane="best" departSpeed="10" />
    <vehicle id="S_N_215" type="standard_car" route="S_N" depart="696.0" departLane="best" departSpeed="10" />
    <vehicle id="S_W_216" type="standard_car" route="S_W" depart="699.0" departLane="best" departSpeed="10" />
    <vehicle id="N_S_217" type="standard_car" route="N_S" depart="702.0" departLane="best" departSpeed="10" />
    <vehicle id="S_N_218" type="standard_car" route="S_N" depart="702.0" departLane="best" departSpeed="10" />
    <vehicle id="N_S_219" type="standard_car" route="N_S" depart="703.0" departLane="best" departSpeed="10" />
    <vehicle id="N_S_220" type="standard_car" route="N_S" depart="703.0" departLane="best" departSpeed="10" />
    <vehicle id="N_W_221" type="standard_car" route="N_W" depart="705.0" departLane="best" departSpeed="10" />
    <vehicle id="S_N_222" type="standard_car" route="S_N" depart="705.0" departLane="best" departSpeed="10" />
    <vehicle id="S_N_223" type="standard_car" route="S_N" depart="706.0" departLane="best" departSpeed="10" />
    <vehicle id="E_W_224" type="standard_car" route="E_W" depart="706.0" departLane="best" departSpeed="10" />
    <vehicle id="S_N_225" type="standard_car" route="S_N" depart="707.0" departLane="best" departSpeed="10" />
    <vehicle id="N_S_226" type="standard_car" route="N_S" depart="707.0" departLane="best" departSpeed="10" />
    <vehicle id="S_W_227" type="standard_car" route="S_W" depart="708.0" departLane="best" departSpeed="10" />
    <vehicle id="S_N_228" type="standard_car" route="S_N" depart="711.0" departLane="best" departSpeed="10" />
    <vehicle id="N_S_229" type="standard_car" route="N_S" depart="712.0" departLane="best" departSpeed="10" />
    <vehicle id="S_N_230" type="standard_car" route="S_N" depart="713.0" departLane="best" departSpeed="10" />
    <vehicle id="N_W_231" type="standard_car" route="N_W" depart="713.0" departLane="best" departSpeed="10" />
    <vehicle id="S_N_232" type="standard_car" route="S_N" depart="714.0" departLane="best" departSpeed="10" />
    <vehicle id="S_N_233" type="standard_car" route="S_N" depart="714.0" departLane="best" departSpeed="10" />
    <vehicle id="N_W_234" type="standard_car" route="N_W" depart="715.0" departLane="best" departSpeed="10" />
    <vehicle id="S_N_235" type="standard_car" route="S_N" depart="715.0" departLane="best" departSpeed="10" />
    <vehicle id="S_N_236" type="standard_car" route="S_N" depart="715.0" departLane="best" departSpeed="10" />
    <vehicle id="W_E_237" type="standard_car" route="W_E" depart="722.0" departLane="best" departSpeed="10" />
    <vehicle id="S_N_238" type="standard_car" route="S_N" depart="725.0" departLane="best" departSpeed="10" />
    <vehicle id="N_S_239" type="standard_car" route="N_S" depart="728.0" departLane="best" departSpeed="10" />
    <vehicle id="S_N_240" type="standard_car" route="S_N" depart="730.0" departLane="best" departSpeed="10" />
    <vehicle id="S_N_241" type="standard_car" route="S_N" depart="731.0" departLane="best" departSpeed="10" />
    <vehicle id="N_S_242" type="standard_car" route="N_S" depart="731.0" departLane="best" departSpeed="10" />
    <vehicle id="N_S_243" type="standard_car" route="N_S" depart="731.0" departLane="best" departSpeed="10" />
    <vehicle id="S_E_244" type="standard_car" route="S_E" depart="733.0" departLane="best" departSpeed="10" />
    <vehicle id="N_S_245" type="standard_car" route="N_S" depart="734.0" departLane="best" departSpeed="10" />
    <vehicle id="S_E_246" type="standard_car" route="S_E" depart="735.0" departLane="best" departSpeed="10" />
    <vehicle id="N_S_247" type="standard_car" route="N_S" depart="741.0" departLane="best" departSpeed="10" />
    <vehicle id="N_S_248" type="standard_car" route="N_S" depart="741.0" departLane="best" departSpeed="10" />
    <vehicle id="S_N_249" type="standard_car" route="S_N" depart="744.0" departLane="best" departSpeed="10" />
    <vehicle id="N_S_250" type="standard_car" route="N_S" depart="744.0" departLane="best" departSpeed="10" />
    <vehicle id="S_N_251" type="standard_car" route="S_N" depart="747.0" departLane="best" departSpeed="10" />
    <vehicle id="S_N_252" type="standard_car" route="S_N" depart="748.0" departLane="best" departSpeed="10" />
    <vehicle id="N_S_253" type="standard_car" route="N_S" depart="749.0" departLane="best" departSpeed="10" />
    <vehicle id="N_W_254" type="standard_car" route="N_W" depart="751.0" departLane="best" departSpeed="10" />
    <vehicle id="S_N_255" type="standard_car" route="S_N" depart="755.0" departLane="best" departSpeed="10" />
    <vehicle id="S_N_256" type="standard_car" route="S_N" depart="756.0" departLane="best" departSpeed="10" />
    <vehicle id="W_E_257" type="standard_car" route="W_E" depart="762.0" departLane="best" departSpeed="10" />
    <vehicle id="S_N_258" type="standard_car" route="S_N" depart="764.0" departLane="best" departSpeed="10" />
    <vehicle id="N_S_259" type="standard_car" route="N_S" depart="764.0" departLane="best" departSpeed="10" />
    <vehicle id="N_W_260" type="standard_car" route="N_W" depart="765.0" departLane="best" departSpeed="10" />
    <vehicle id="N_S_261" type="standard_car" route="N_S" depart="766.0" departLane="best" departSpeed="10" />
    <vehicle id="N_S_262" type="standard_car" route="N_S" depart="774.0" departLane="best" departSpeed="10" />
    <vehicle id="N_S_263" type="standard_car" route="N_S" depart="783.0" departLane="best" departSpeed="10" />