<routes>
            <vType accel="1.0" decel="4.5" id="standard_car" length="5.0" minGap="2.5" maxSpeed="25" sigma="0.5" />

            <route id="W_N" edges="W2TL TL2N"/>
            <route id="W_E" edges="W2TL TL2E"/>
            <route id="W_S" edges="W2TL TL2S"/>
            <route id="N_W" edges="N2TL TL2W"/>
            <route id="N_E" edges="N2TL TL2E"/>
            <route id="N_S" edges="N2TL TL2S"/>

            <route id="E_W" edges="E2TL TL2W"/>
            <route id="E_N" edges="E2TL TL2N"/>
            <route id="E_S" edges="E2TL TL2S"/>
            <route id="S_W" edges="S2TL TL2W"/>
            <route id="S_N" edges="S2TL TL2N"/>
            <route id="S_E" edges="S2TL TL2E"/>
    <vehicle id="N_S_0" type="standard_car" route="N_S" depart="45.0" departLane="best" departSpeed="10" />
    <vehicle id="W_E_1" type="standard_car" route="W_E" depart="62.0" departLane="best" departSpeed="10" />
    <vehicle id="E_S_2" type="standard_car" route="E_S" depart="75.0" departLane="best" departSpeed="10" />
    <vehicle id="E_W_3" type="standard_car" route="E_W" depart="82.0" departLane="best" departSpeed="10" />
    <vehicle id="S_N_4" type="standard_car" route="S_N" depart="107.0" departLane="best" departSpeed="10" />
    <vehicle id="N_S_5" type="standard_car" route="N_S" depart="129.0" departLane="best" departSpeed="10" />
    <vehicle id="S_N_6" type="standard_car" route="S_N" depart="130.0" departLane="best" departSpeed="10" />
    <vehicle id="S_N_7" type="standard_car" route="S_N" depart="132.0" departLane="best" departSpeed="10" />
    <vehicle id="S_N_8" type="standard_car" route="S_N" depart="139.0" departLane="best" departSpeed="10" />
    <vehicle id="N_S_9" type="standard_car" route="N_S" depart="150.0" departLane="best" departSpeed="10" />
    <vehicle id="E_W_10" type="standard_car" route="E_W" depart="154.0" departLane="best" departSpeed="10" />
    <vehicle id="W_E_11" type="standard_car" route="W_E" depart="154.0" departLane="best" departSpeed="10" />
    <vehicle id="E_W_12" type="standard_car" route="E_W" depart="157.0" departLane="best" departSpeed="10" />
    <vehicle id="W_E_13" type="standard_car" route="W_E" depart="164.0" departLane="best" departSpeed="10" />
    <vehicle id="N_W_14" type="standard_car" route="N_W" depart="165.0" departLane="best" departSpeed="10" />
    <vehicle id="E_N_15" type="standard_car" route="E_N" depart="167.0" departLane="best" departSpeed="10" />
    <vehicle id="S_N_16" type="standard_car" route="S_N" depart="167.0" departLane="best" departSpeed="10" />
    <vehicle id="W_E_17" type="standard_car" route="W_E" depart="171.0" departLane="best" departSpeed="10" />
    <vehicle id="W_E_18" type="standard_car" route="W_E" depart="172.0" departLane="best" departSpeed="10" />
    <vehicle id="S_N_19" type="standard_car" route="S_N" depart="173.0" departLane="best" departSpeed="10" />
    <vehicle id="W_E_20" type="standard_car" route="W_E" depart="188.0" departLane="best" departSpeed="10" />
    <vehicle id="N_S_21" type="standard_car" route="N_S" depart="190.0" departLane="best" departSpeed="10" />
    <vehicle id="W_E_22" type="standard_car" route="W_E" depart="193.0" departLane="best" departSpeed="10" />
    <vehicle id="W_E_23" type="standard_car" route="W_E" depart="206.0" departLane="best" departSpeed="10" />
    <vehicle id="E_S_24" type="standard_car" route="E_S" depart="207.0" departLane="best" departSpeed="10" />
    <vehicle id="E_W_25" type="standard_car" route="E_W" depart="209.0" departLane="best" departSpeed="10" />
    <vehicle id="W_E_26" type="standard_car" route="W_E" depart="210.0" departLane="best" departSpeed="10" />
    <vehicle id="S_N_27" type="standard_car" route="S_N" depart="216.0" departLane="best" departSpeed="10" />
    <vehicle id="E_W_28" type="standard_car" route="E_W" depart="220.0" departLane="best" departSpeed="10" />
    <vehicle id="W_N_29" type="standard_car" route="W_N" depart="221.0" departLane="best" departSpeed="10" />
    <vehicle id="S_N_30" type="standard_car" route="S_N" depart="228.0" departLane="best" departSpeed="10" />
    <vehicle id="S_E_31" type="standard_car" route="S_E" depart="230.0" departLane="best" departSpeed="10" />
    <vehicle id="E_W_32" type="standard_car" route="E_W" depart="240.0" departLane="best" departSpeed="10" />
    <vehicle id="S_N_33" type="standard_car" route="S_N" depart="241.0" departLane="best" departSpeed="10" />
    <vehicle id="S_W_34" type="standard_car" route="S_W" depart="256.0" departLane="best" departSpeed="10" />
    <vehicle id="E_S_35" type="standard_car" route="E_S" depart="260.0" departLane="best" departSpeed="10" />
    <vehicle id="N_S_36" type="standard_car" route="N_S" depart="263.0" departLane="best" departSpeed="10" />
    <vehicle id="S_N_37" type="standard_car" route="S_N" depart="268.0" departLane="best" departSpeed="10" />
    <vehicle id="S_E_38" type="standard_car" route="S_E" depart="281.0" departLane="best" departSpeed="10" />
    <vehicle id="W_E_39" type="standard_car" route="W_E" depart="284.0" departLane="best" departSpeed="10" />
    <vehicle id="E_W_40" type="standard_car" route="E_W" depart="286.0" departLane="best" departSpeed="10" />
    <vehicle id="S_N_41" type="standard_car" route="S_N" depart="290.0" departLane="best" departSpeed="10" />
    <vehicle id="E_W_42" type="standard_car" route="E_W" depart="293.0" departLane="best" departSpeed="10" />
    <vehicle id="E_W_43" type="standard_car" route="E_W" depart="294.0" departLane="best" departSpeed="10" />
    <vehicle id="E_W_44" type="standard_car" route="E_W" depart="295.0" departLane="best" departSpeed="10" />
    <vehicle id="N_S_45" type="standard_car" route="N_S" depart="298.0" departLane="best" departSpeed="10" />
    <vehicle id="W_E_46" type="standard_car" route="W_E" depart="299.0" departLane="best" departSpeed="10" />
    <vehicle id="E_W_47" type="standard_car" route="E_W" depart="301.0" departLane="best" departSpeed="10" />
    <vehicle id="E_W_48" type="standard_car" route="E_W" depart="305.0" departLane="best" departSpeed="10" />
    <vehicle id="S_N_49" type="standard_car" route="S_N" depart="305.0" departLane="best" departSpeed="10" />
    <vehicle id="E_W_50" type="standard_car" route="E_W" depart="307.0" departLane="best" departSpeed="10" />
    <vehicle id="W_E_51" type="standard_car" route="W_E" depart="309.0" departLane="best" departSpeed="10" />
    <vehicle id="E_W_52" type="standard_car" route="E_W" depart="309.0" departLane="best" departSpeed="10" />
    <vehicle id="W_E_53" type="standard_car" route="W_E" depart="312.0" departLane="best" departSpeed="10" />
    <vehicle id="E_W_54" type="standard_car" route="E_W" depart="313.0" departLane="best" departSpeed="10" />
    <vehicle id="W_E_55" type="standard_car" route="W_E" depart="314.0" departLane="best" departSpeed="10" />
    <vehicle id="S_N_56" type="standard_car" route="S_N" depart="317.0" departLane="best" departSpeed="10" />
    <vehicle id="N_S_57" type="standard_car" route="N_S" depart="319.0" departLane="best" departSpeed="10" />
    <vehicle id="N_S_58" type="standard_car" route="N_S" depart="321.0" departLane="best" departSpeed="10" />
    <vehicle id="S_E_59" type="standard_car" route="S_E" depart="323.0" departLane="best" departSpeed="10" />
    <vehicle id="S_E_60" type="standard_car" route="S_E" depart="325.0" departLane="best" departSpeed="10" />
    <vehicle id="W_E_61" type="standard_car" route="W_E" depart="326.0" departLane="best" departSpeed="10" />
    <vehicle id="S_N_62" type="standard_car" route="S_N" depart="336.0" departLane="best" departSpeed="10" />
    <vehicle id="W_E_63" type="standard_car" route="W_E" depart="338.0" departLane="best" departSpeed="10" />
    <vehicle id="S_N_64" type="standard_car" route="S_N" depart="340.0" departLane="best" departSpeed="10" />
    <vehicle id="S_E_65" type="standard_car" route="S_E" depart="345.0" departLane="best" departSpeed="10" />
    <vehicle id="N_S_66" type="standard_car" route="N_S" depart="348.0" departLane="best" departSpeed="10" />
    <vehicle id="S_N_67" type="standard_car" route="S_N" depart="349.0" departLane="best" departSpeed="10" />
    <vehicle id="E_W_68" type="standard_car" route="E_W" depart="350.0" departLane="best" departSpeed="10" />
    <vehicle id="N_S_69" type="standard_car" route="N_S" depart="354.0" departLane="best" departSpeed="10" />
    <vehicle id="N_S_70" type="standard_car" route="N_S" depart="358.0" departLane="best" departSpeed="10" />
    <vehicle id="W_S_71" type="standard_car" route="W_S" depart="362.0" departLane="best" departSpeed="10" />
    <vehicle id="E_N_72" type="standard_car" route="E_N" depart="367.0" departLane="best" departSpeed="10" />
    <vehicle id="E_W_73" type="standard_car" route="E_W" depart="368.0" departLane="best" departSpeed="10" />
    <vehicle id="S_E_74" type="standard_car" route="S_E" depart="370.0" departLane="best" departSpeed="10" />
    <vehicle id="S_N_75" type="standard_car" route="S_N" depart="377.0" departLane="best" departSpeed="10" />
    <vehicle id="N_S_76" type="standard_car" route="N_S" depart="381.0" departLane="best" departSpeed="10" />
    <vehicle id="W_E_77" type="standard_car" route="W_E" depart="383.0" departLane="best" departSpeed="10" />
    <vehicle id="S_N_78" type="standard_car" route="S_N" depart="384.0" departLane="best" departSpeed="10" />
    <vehicle id="N_S_79" type="standard_car" route="N_S" depart="384.0" departLane="best" departSpeed="10" />
    <vehicle id="E_W_80" type="standard_car" route="E_W" depart="384.0" departLane="best" departSpeed="10" />
    <vehicle id="W_E_81" type="standard_car" route="W_E" depart="385.0" departLane="best" departSpeed="10" />
    <vehicle id="E_W_82" type="standard_car" route="E_W" depart="389.0" departLane="best" departSpeed="10" />
    <vehicle id="S_N_83" type="standard_car" route="S_N" depart="390.0" departLane="best" departSpeed="10" />
    <vehicle id="E_W_84" type="standard_car" route="E_W" depart="390.0" departLane="best" departSpeed="10" />
    <vehicle id="W_E_85" type="standard_car" route="W_E" depart="390.0" departLane="best" departSpeed="10" />
    <vehicle id="N_S_86" type="standard_car" route="N_S" depart="394.0" departLane="best" departSpeed="10" />
    <vehicle id="W_E_87" type="standard_car" route="W_E" depart="394.0" departLane="best" departSpeed="10" />
    <vehicle id="S_N_88" type="standard_car" route="S_N" depart="396.0" departLane="best" departSpeed="10" />
    <vehicle id="N_S_89" type="standard_car" route="N_S" depart="399.0" departLane="best" departSpeed="10" />
    <vehicle id="W_E_90" type="standard_car" route="W_E" depart="401.0" departLane="best" departSpeed="10" />
    <vehicle id="S_N_91" type="standard_car" route="S_N" depart="404.0" departLane="best" departSpeed="10" />
    <vehicle id="S_N_92" type="standard_car" route="S_N" depart="405.0" departLane="best" departSpeed="10" />
    <vehicle id="E_W_93" type="standard_car" route="E_W" depart="409.0" departLane="best" departSpeed="10" />
    <vehicle id="S_N_94" type="standard_car" route="S_N" depart="410.0" departLane="best" departSpeed="10" />
    <vehicle id="N_W_95" type="standard_car" route="N_W" depart="411.0" departLane="best" departSpeed="10" />
    <vehicle id="S_N_96" type="standard_car" route="S_N" depart="420.0" departLane="best" departSpeed="10" />
    <vehicle id="S_N_97" type="standard_car" route="S_N" depart="421.0" departLane="best" departSpeed="10" />
    <vehicle id="S_N_98" type="standard_car" route="S_N" depart="421.0" departLane="best" departSpeed="10" />
    <vehicle id="S_N_99" type="standard_car" route="S_N" depart="424.0" departLane="best" departSpeed="10" />
    <vehicle id="S_N_100" type="standard_car" route="S_N" depart="424.0" departLane="best" departSpeed="10" />
    <vehicle id="S_N_101" type="standard_car" route="S_N" depart="424.0" departLane="best" departSpeed="10" />
    <vehicle id="N_S_102" type="standard_car" route="N_S" depart="424.0" departLane="best" departSpeed="10" />
    <vehicle id="N_S_103" type="standard_car" route="N_S" depart="424.0" departLane="best" departSpeed="10" />
    <vehicle id="W_E_104" type="standard_car" route="W_E" depart="426.0" departLane="best" departSpeed="10" />
    <vehicle id="W_E_105" type="standard_car" route="W_E" depart="427.0" departLane="best" departSpeed="10" />
    <vehicle id="N_S_106" type="standard_car" route="N_S" depart="429.0" departLane="best" departSpeed="10" />
    <vehicle id="E_W_107" type="standard_car" route="E_W" depart="436.0" departLane="best" departSpeed="10" />
    <vehicle id="N_E_108" type="standard_car" route="N_E" depart="446.0" departLane="best" departSpeed="10" />
    <vehicle id="N_W_109" type="standard_car" route="N_W" depart="446.0" departLane="best" departSpeed="10" />
    <vehicle id="S_N_110" type="standard_car" route="S_N" depart="450.0" departLane="best" departSpeed="10" />
    <vehicle id="E_W_111" type="standard_car" route="E_W" depart="450.0" departLane="best" departSpeed="10" />
    <vehicle id="N_W_112" type="standard_car" route="N_W" depart="451.0" departLane="best" departSpeed="10" />
    <vehicle id="S_E_113" type="standard_car" route="S_E" depart="451.0" departLane="best" departSpeed="10" />
    <vehicle id="E_W_114" type="standard_car" route="E_W" depart="452.0" departLane="best" departSpeed="10" />
    <vehicle id="E_W_115" type="standard_car" route="E_W" depart="452.0" departLane="best" departSpeed="10" />
    <vehicle id="N_S_116" type="standard_car" route="N_S" depart="454.0" departLane="best" departSpeed="10" />
    <vehicle id="N_S_117" type="standard_car" route="N_S" depart="454.0" departLane="best" departSpeed="10" />
    <vehicle id="W_E_118" type="standard_car" route="W_E" depart="458.0" departLane="best" departSpeed="10" />
    <vehicle id="W_E_119" type="standard_car" route="W_E" depart="460.0" departLane="best" departSpeed="10" />
    <vehicle id="S_W_120" type="standard_car" route="S_W" depart="463.0" departLane="best" departSpeed="10" />
    <vehicle id="S_W_121" type="standard_car" route="S_W" depart="464.0" departLane="best" departSpeed="10" />
    <vehicle id="E_W_122" type="standard_car" route="E_W" depart="472.0" departLane="best" departSpeed="10" />
    <vehicle id="E_W_123" type="standard_car" route="E_W" depart="475.0" departLane="best" departSpeed="10" />
    <vehicle id="N_S_124" type="standard_car" route="N_S" depart="478.0" departLane="best" departSpeed="10" />
    <vehicle id="S_N_125" type="standard_car" route="S_N" depart="480.0" departLane="best" departSpeed="10" />
    <vehicle id="N_S_126" type="standard_car" route="N_S" depart="480.0" departLane="best" departSpeed="10" />
    <vehicle id="S_N_127" type="standard_car" route="S_N" depart="481.0" departLane="best" departSpeed="10" />
    <vehicle id="E_S_128" type="standard_car" route="E_S" depart="483.0" departLane="best" departSpeed="10" />
    <vehicle id="S_N_129" type="standard_car" route="S_N" depart="488.0" departLane="best" departSpeed="10" />
    <vehicle id="W_N_130" type="standard_car" route="W_N" depart="490.0" departLane="best" departSpeed="10" />
    <vehicle id="N_S_131" type="standard_car" route="N_S" depart="495.0" departLane="best" departSpeed="10" />
    <vehicle id="S_N_132" type="standard_car" route="S_N" depart="499.0" departLane="best" departSpeed="10" />
    <vehicle id="S_E_133" type="standard_car" route="S_E" depart="500.0" departLane="best" departSpeed="10" />
    <vehicle id="N_W_134" type="standard_car" route="N_W" depart="501.0" departLane="best" departSpeed="10" />
    <vehicle id="S_N_135" type="standard_car" route="S_N" depart="501.0" departLane="best" departSpeed="10" />
    <vehicle id="N_S_136" type="standard_car" route="N_S" depart="502.0" departLane="best" departSpeed="10" />
    <vehicle id="N_S_137" type="standard_car" route="N_S" depart="502.0" departLane="best" departSpeed="10" />
    <vehicle id="S_N_138" type="standard_car" route="S_N" depart="503.0" departLane="best" departSpeed="10" />
    <vehicle id="N_S_139" type="standard_car" route="N_S" depart="505.0" departLane="best" departSpeed="10" />
    <vehicle id="S_N_140" type="standard_car" route="S_N" depart="505.0" departLane="best" departSpeed="10" />
    <vehicle id="W_E_141" type="standard_car" route="W_E" depart="506.0" departLane="best" departSpeed="10" />
    <vehicle id="E_W_142" type="standard_car" route="E_W" depart="509.0" departLane="best" departSpeed="10" />
    <vehicle id="W_E_143" type="standard_car" route="W_E" depart="511.0" departLane="best" departSpeed="10" />
    <vehicle id="E_W_144" type="standard_car" route="E_W" depart="516.0" departLane="best" departSpeed="10" />
    <vehicle id="W_E_145" type="standard_car" route="W_E" depart="521.0" departLane="best" departSpeed="10" />
    <vehicle id="S_N_146" type="standard_car" route="S_N" depart="521.0" departLane="best" departSpeed="10" />
    <vehicle id="W_E_147" type="standard_car" route="W_E" depart="526.0" departLane="best" departSpeed="10" />
    <vehicle id="S_N_148" type="standard_car" route="S_N" depart="526.0" departLane="best" departSpeed="10" />
    <vehicle id="W_E_149" type="standard_car" route="W_E" depart="532.0" departLane="best" departSpeed="10" />
    <vehicle id="W_E_150" type="standard_car" route="W_E" depart="534.0" departLane="best" departSpeed="10" />
    <vehicle id="W_E_151" type="standard_car" route="W_E" depart="536.0" departLane="best" departSpeed="10" />
    <vehicle id="E_S_152" type="standard_car" route="E_S" depart="540.0" departLane="best" departSpeed="10" />
    <vehicle id="W_N_153" type="standard_car" route="W_N" depart="540.0" departLane="best" departSpeed="10" />
    <vehicle id="N_S_154" type="standard_car" route="N_S" depart="543.0" departLane="best" departSpeed="10" />
    <vehicle id="W_E_155" type="standard_car" route="W_E" depart="544.0" departLane="best" departSpeed="10" />
    <vehicle id="E_S_156" type="standard_car" route="E_S" depart="545.0" departLane="best" departSpeed="10" />
    <vehicle id="E_W_157" type="standard_car" route="E_W" depart="546.0" departLane="best" departSpeed="10" />
    <vehicle id="E_W_158" type="standard_car" route="E_W" depart="551.0" departLane="best" departSpeed="10" />
    <vehicle id="W_E_159" type="standard_car" route="W_E" depart="552.0" departLane="best" departSpeed="10" />
    <vehicle id="S_E_160" type="standard_car" route="S_E" depart="561.0" departLane="best" departSpeed="10" />
    <vehicle id="E_W_161" type="standard_car" route="E_W" depart="562.0" departLane="best" departSpeed="10" />
    <vehicle id="N_S_162" type="standard_car" route="N_S" depart="566.0" departLane="best" departSpeed="10" />
    <vehicle id="W_E_163" type="standard_car" route="W_E" depart="567.0" departLane="best" departSpeed="10" />
    <vehicle id="S_E_164" type="standard_car" route="S_E" depart="575.0" departLane="best" departSpeed="10" />
    <vehicle id="S_N_165" type="standard_car" route="S_N" depart="579.0" departLane="best" departSpeed="10" />
    <vehicle id="E_W_166" type="standard_car" route="E_W" depart="581.0" departLane="best" departSpeed="10" />
    <vehicle id="W_E_167" type="standard_car" route="W_E" depart="582.0" departLane="best" departSpeed="10" />
    <vehicle id="W_S_168" type="standard_car" route="W_S" depart="582.0" departLane="best" departSpeed="10" />
    <vehicle id="W_E_169" type="standard_car" route="W_E" depart="583.0" departLane="best" departSpeed="10" />
    <vehicle id="N_S_170" type="standard_car" route="N_S" depart="588.0" departLane="best" departSpeed="10" />
    <vehicle id="S_W_171" type="standard_car" route="S_W" depart="591.0" departLane="best" departSpeed="10" />
    <vehicle id="S_N_172" type="standard_car" route="S_N" depart="593.0" departLane="best" departSpeed="10" />
    <vehicle id="S_N_173" type="standard_car" route="S_N" depart="593.0" departLane="best" departSpeed="10" />
    <vehicle id="S_N_174" type="standard_car" route="S_N" depart="600.0" departLane="best" departSpeed="10" />
    <vehicle id="E_W_175" type="standard_car" route="E_W" depart="600.0" departLane="best" departSpeed="10" />
    <vehicle id="N_S_176" type="standard_car" route="N_S" depart="603.0" departLane="best" departSpeed="10" />
    <vehicle id="W_E_177" type="standard_car" route="W_E" depart="603.0" departLane="best" departSpeed="10" />
    <vehicle id="W_E_178" type="standard_car" route="W_E" depart="604.0" departLane="best" departSpeed="10" />
    <vehicle id="S_N_179" type="standard_car" route="S_N" depart="605.0" departLane="best" departSpeed="10" />
    <vehicle id="W_E_180" type="standard_car" route="W_E" depart="610.0" departLane="best" departSpeed="10" />
    <vehicle id="W_E_181" type="standard_car" route="W_E" depart="610.0" departLane="best" departSpeed="10" />
    <vehicle id="N_S_182" type="standard_car" route="N_S" depart="616.0" departLane="best" departSpeed="10" />
    <vehicle id="E_W_183" type="standard_car" route="E_W" depart="617.0" departLane="best" departSpeed="10" />
    <vehicle id="S_W_184" type="standard_car" route="S_W" depart="617.0" departLane="best" departSpeed="10" />
    <vehicle id="E_S_185" type="standard_car" route="E_S" depart="618.0" departLane="best" departSpeed="10" />
    <vehicle id="E_S_186" type="standard_car" route="E_S" depart="619.0" departLane="best" departSpeed="10" />
    <vehicle id="S_N_187" type="standard_car" route="S_N" depart="625.0" departLane="best" departSpeed="10" />
    <vehicle id="N_S_188" type="standard_car" route="N_S" depart="625.0" departLane="best" departSpeed="10" />
    <vehicle id="S_N_189" type="standard_car" route="S_N" depart="625.0" departLane="best" departSpeed="10" />
    <vehicle id="E_S_190" type="standard_car" route="E_S" depart="626.0" departLane="best" departSpeed="10" />
    <vehicle id="S_N_191" type="standard_car" route="S_N" depart="629.0" departLane="best" departSpeed="10" />
    <vehicle id="S_N_192" type="standard_car" route="S_N" depart="630.0" departLane="best" departSpeed="10" />
    <vehicle id="E_W_193" type="standard_car" route="E_W" depart="631.0" departLane="best" departSpeed="10" />
    <vehicle id="W_E_194" type="standard_car" route="W_E" depart="631.0" departLane="best" departSpeed="10" />
    <vehicle id="N_S_195" type="standard_car" route="N_S" depart="632.0" departLane="best" departSpeed="10" />
    <vehicle id="S_W_196" type="standard_car" route="S_W" depart="632.0" departLane="best" departSpeed="10" />
    <vehicle id="S_W_197" type="standard_car" route="S_W" depart="635.0" departLane="best" departSpeed="10" />
    <vehicle id="W_E_198" type="standard_car" route="W_E" depart="636.0" departLane="best" departSpeed="10" />
    <vehicle id="W_S_199" type="standard_car" route="W_S" depart="637.0" departLane="best" departSpeed="10" />
    <vehicle id="E_W_200" type="standard_car" route="E_W" depart="638.0" departLane="best" departSpeed="10" />
    <vehicle id="N_S_201" type="standard_car" route="N_S" depart="638.0" departLane="best" departSpeed="10" />
    <vehicle id="E_W_202" type="standard_car" route="E_W" depart="640.0" departLane="best" departSpeed="10" />
    <vehicle id="W_E_203" type="standard_car" route="W_E" depart="640.0" departLane="best" departSpeed="10" />
    <vehicle id="W_E_204" type="standard_car" route="W_E" depart="641.0" departLane="best" departSpeed="10" />
    <vehicle id="E_W_205" type="standard_car" route="E_W" depart="642.0" departLane="best" departSpeed="10" />
    <vehicle id="W_S_206" type="standard_car" route="W_S" depart="643.0" departLane="best" departSpeed="10" />
    <vehicle id="E_W_207" type="standard_car" route="E_W" depart="644.0" departLane="best" departSpeed="10" />
    <vehicle id="W_E_208" type="standard_car" route="W_E" depart="647.0" departLane="best" departSpeed="10" />
    <vehicle id="E_N_209" type="standard_car" route="E_N" depart="648.0" departLane="best" departSpeed="10" />
    <vehicle id="E_S_210" type="standard_car" route="E_S" depart="649.0" departLane="best" departSpeed="10" />
    <vehicle id="W_E_211" type="standard_car" route="W_E" depart="649.0" departLane="best" departSpeed="10" />
    <vehicle id="S_N_212" type="standard_car" route="S_N" depart="649.0" departLane="best" departSpeed="10" />
    <vehicle id="N_S_213" type="standard_car" route="N_S" depart="650.0" departLane="best" departSpeed="10" />
    <vehicle id="S_E_214" type="standard_car" route="S_E" depart="657.0" departLane="best" departSpeed="10" />
    <vehicle id="S_E_215" type="standard_car" route="S_E" depart="658.0" departLane="best" departSpeed="10" />
    <vehicle id="S_N_216" type="standard_car" route="S_N" depart="660.0" departLane="best" departSpeed="10" />
    <vehicle id="S_N_217" type="standard_car" route="S_N" depart="662.0" departLane="best" departSpeed="10" />
    <vehicle id="W_E_218" type="standard_car" route="W_E" depart="663.0" departLane="best" departSpeed="10" />
    <vehicle id="W_E_219" type="standard_car" route="W_E" depart="665.0" departLane="best" departSpeed="10" />
    <vehicle id="S_N_220" type="standard_car" route="S_N" depart="666.0" departLane="best" departSpeed="10" />
    <vehicle id="E_W_221" type="standard_car" route="E_W" depart="666.0" departLane="best" departSpeed="10" />
    <vehicle id="S_N_222" type="standard_car" route="S_N" depart="669.0" departLane="best" departSpeed="10" />
    <vehicle id="N_S_223" type="standard_car" route="N_S" depart="673.0" departLane="best" departSpeed="10" />
    <vehicle id="W_N_224" type="standard_car" route="W_N" depart="674.0" departLane="best" departSpeed="10" />
    <vehicle id="W_E_225" type="standard_car" route="W_E" depart="675.0" departLane="best" departSpeed="10" />
    <vehicle id="W_S_226" type="standard_car" route="W_S" depart="676.0" departLane="best" departSpeed="10" />
    <vehicle id="W_S_227" type="standard_car" route="W_S" depart="677.0" departLane="best" departSpeed="10" />
    <vehicle id="W_S_228" type="standard_car" route="W_S" depart="677.0" departLane="best" departSpeed="10" />
    <vehicle id="W_E_229" type="standard_car" route="W_E" depart="678.0" departLane="best" departSpeed="10" />
    <vehicle id="W_E_230" type="standard_car" route="W_E" depart="680.0" departLane="best" departSpeed="10" />
    <vehicle id="N_W_231" type="standard_car" route="N_W" depart="684.0" departLane="best" departSpeed="10" />
    <vehicle id="W_E_232" type="standard_car" route="W_E" depart="684.0" departLane="best" departSpeed="10" />
    <vehicle id="N_S_233" type="standard_car" route="N_S" depart="684.0" departLane="best" departSpeed="10" />
    <vehicle id="E_W_234" type="standard_car" route="E_W" depart="686.0" departLane="best" departSpeed="10" />
    <vehicle id="E_W_235" type="standard_car" route="E_W" depart="690.0" departLane="best" departSpeed="10" />
    <vehicle id="N_S_236" type="standard_car" route="N_S" depart="692.0" departLane="best" departSpeed="10" />
    <vehicle id="N_E_237" type="standard_car" route="N_E" depart="692.0" departLane="best" departSpeed="10" />
    <vehicle id="W_E_238" type="standard_car" route="W_E" depart="693.0" departLane="best" departSpeed="10" />
    <vehicle id="S_N_239" type="standard_car" route="S_N" depart="694.0" departLane="best" departSpeed="10" />
    <vehicle id="N_S_240" type="standard_car" route="N_S" depart="698.0" departLane="best" departSpeed="10" />
    <vehicle id="S_W_241" type="standard_car" route="S_W" depart="700.0" departLane="best" departSpeed="10" />
    <vehicle id="E_W_242" type="standard_car" route="E_W" depart="701.0" departLane="best" departSpeed="10" />
    <vehicle id="N_S_243" type="standard_car" route="N_S" depart="702.0" departLane="best" departSpeed="10" />
    <vehicle id="S_N_244" type="standard_car" route="S_N" depart="705.0" departLane="best" departSpeed="10" />
    <vehicle id="S_W_245" type="standard_car" route="S_W" depart="706.0" departLane="best" departSpeed="10" />
    <vehicle id="S_N_246" type="standard_car" route="S_N" depart="707.0" departLane="best" departSpeed="10" />
    <vehicle id="S_N_247" type="standard_car" route="S_N" depart="708.0" departLane="best" departSpeed="10" />
    <vehicle id="N_S_248" type="standard_car" route="N_S" depart="711.0" departLane="best" departSpeed="10" />
    <vehicle id="W_E_249" type="standard_car" route="W_E" depart="712.0" departLane="best" departSpeed="10" />
    <vehicle id="S_E_250" type="standard_car" route="S_E" depart="713.0" departLane="best" departSpeed="10" />
    <vehicle id="N_S_251" type="standard_car" route="N_S" depart="714.0" departLane="best" departSpeed="10" />
    <vehicle id="S_N_252" type="standard_car" route="S_N" depart="717.0" departLane="best" departSpeed="10" />
    <vehicle id="W_N_253" type="standard_car" route="W_N" depart="717.0" departLane="best" departSpeed="10" />
    <vehicle id="W_E_254" type="standard_car" route="W_E" depart="719.0" departLane="best" departSpeed="10" />
    <vehicle id="S_N_255" type="standard_car" route="S_N" depart="719.0" departLane="best" departSpeed="10" />
    <vehicle id="S_N_256" type="standard_car" route="S_N" depart="723.0" departLane="best" departSpeed="10" />
    <vehicle id="N_S_257" type="standard_car" route="N_S" depart="723.0" departLane="best" departSpeed="10" />
    <vehicle id="S_E_258" type="standard_car" route="S_E" depart="723.0" departLane="best" departSpeed="10" />
    <vehicle id="E_W_259" type="standard_car" route="E_W" depart="726.0" departLane="best" departSpeed="10" />
    <vehicle id="E_W_260" type="standard_car" route="E_W" depart="732.0" departLane="best" departSpeed="10" />
    <vehicle id="S_N_261" type="standard_car" route="S_N" depart="734.0" departLane="best" departSpeed="10" />
    <vehicle id="W_E_262" type="standard_car" route="W_E" depart="734.0" departLane="best" departSpeed="10" />
    <vehicle id="N_S_263" type="standard_car" route="N_S" depart="739.0" departLane="best" departSpeed="10" />